A
     RDKit          2D

  6  5  0  0  0  0  0  0  0  0999 V2000
    1.5000   -1.2990    0.0000 N   0  0  0  0  0  0  0  0  0  0  0  0
    0.7500    0.0000    0.0000 C   0  0  0  0  0  0  0  0  0  0  0  0
    1.5000    1.2990    0.0000 C   0  0  0  0  0  0  0  0  0  0  0  0
   -0.7500   -0.0000    0.0000 C   0  0  0  0  0  0  0  0  0  0  0  0
   -1.5000    1.2990    0.0000 O   0  0  0  0  0  0  0  0  0  0  0  0
   -1.5000   -1.2990    0.0000 O   0  0  0  0  0  0  0  0  0  0  0  0
  1  2  1  0
  2  3  1  6
  2  4  1  0
  4  5  2  0
  4  6  1  0
M  END
>  <rName>  (1) 
A

>  <PQ_SYMBOL>  (1) 
A

>  <FULL_NAME>  (1) 
L-Alanine

>  <IUPAC_CONDENSED>  (1) 
Ala

>  <IUPAC>  (1) 
(2S)-2-aminopropanoic acid

>  <TYPE>  (1) 
Backbone

>  <CLASS>  (1) 
alpha

>  <ANALOG>  (1) 
Ala

>  <MOL_WT>  (1) 
89.09399999999998

>  <LOGP>  (1) 
-0.5818000000000003

>  <TPSA>  (1) 
63.32000000000001

>  <POPULARITY>  (1) 
98.6

>  <PROTECTED>  (1) 
TRUE

>  <SMILES>  (1) 
N[C@@H](C)C(=O)O

>  <INCHIKEY>  (1) 
QNAYBMKLOCPYGJ-REOHCLBHSA-N

$$$$
C
     RDKit          2D

  7  6  0  0  0  0  0  0  0  0999 V2000
    0.5797   -1.7367    0.0000 N   0  0  0  0  0  0  0  0  0  0  0  0
    0.2514   -0.2730    0.0000 C   0  0  0  0  0  0  0  0  0  0  0  0
    1.3548    0.7431    0.0000 C   0  0  0  0  0  0  0  0  0  0  0  0
    2.7865    0.2956    0.0000 S   0  0  0  0  0  0  0  0  0  0  0  0
   -1.1803    0.1745    0.0000 C   0  0  0  0  0  0  0  0  0  0  0  0
   -1.5086    1.6381    0.0000 O   0  0  0  0  0  0  0  0  0  0  0  0
   -2.2837   -0.8417    0.0000 O   0  0  0  0  0  0  0  0  0  0  0  0
  2  1  1  6
  2  3  1  0
  3  4  1  0
  2  5  1  0
  5  6  2  0
  5  7  1  0
M  END
>  <rName>  (2) 
C

>  <PQ_SYMBOL>  (2) 
C

>  <FULL_NAME>  (2) 
L-Cysteine

>  <IUPAC_CONDENSED>  (2) 
Cys

>  <IUPAC>  (2) 
(2R)-2-amino-3-sulfanylpropanoic acid

>  <TYPE>  (2) 
Backbone

>  <CLASS>  (2) 
alpha

>  <ANALOG>  (2) 
Cys

>  <MOL_WT>  (2) 
121.16099999999997

>  <LOGP>  (2) 
-0.6719000000000002

>  <TPSA>  (2) 
63.32000000000001

>  <POPULARITY>  (2) 
95.6

>  <PROTECTED>  (2) 
TRUE

>  <SMILES>  (2) 
N[C@@H](CS)C(=O)O

>  <INCHIKEY>  (2) 
XUJNEKJLAYXESH-REOHCLBHSA-N

$$$$
D
     RDKit          2D

  9  8  0  0  0  0  0  0  0  0999 V2000
   -0.2826   -1.7410    0.0000 N   0  0  0  0  0  0  0  0  0  0  0  0
   -0.5402   -0.2633    0.0000 C   0  0  0  0  0  0  0  0  0  0  0  0
    0.6108    0.6986    0.0000 C   0  0  0  0  0  0  0  0  0  0  0  0
    2.0193    0.1828    0.0000 C   0  0  0  0  0  0  0  0  0  0  0  0
    2.2769   -1.2950    0.0000 O   0  0  0  0  0  0  0  0  0  0  0  0
    3.1703    1.1447    0.0000 O   0  0  0  0  0  0  0  0  0  0  0  0
   -1.9487    0.2525    0.0000 C   0  0  0  0  0  0  0  0  0  0  0  0
   -2.2062    1.7302    0.0000 O   0  0  0  0  0  0  0  0  0  0  0  0
   -3.0997   -0.7094    0.0000 O   0  0  0  0  0  0  0  0  0  0  0  0
  2  1  1  6
  2  3  1  0
  3  4  1  0
  4  5  2  0
  4  6  1  0
  2  7  1  0
  7  8  2  0
  7  9  1  0
M  END
>  <rName>  (3) 
D

>  <PQ_SYMBOL>  (3) 
D

>  <FULL_NAME>  (3) 
L-Aspartic acid

>  <IUPAC_CONDENSED>  (3) 
Asp

>  <IUPAC>  (3) 
(2S)-2-aminobutanedioic acid

>  <TYPE>  (3) 
Backbone

>  <CLASS>  (3) 
alpha

>  <ANALOG>  (3) 
Asp

>  <MOL_WT>  (3) 
133.10299999999998

>  <LOGP>  (3) 
-1.127

>  <TPSA>  (3) 
100.62000000000002

>  <POPULARITY>  (3) 
94.7

>  <PROTECTED>  (3) 
TRUE

>  <SMILES>  (3) 
N[C@@H](CC(=O)O)C(=O)O

>  <INCHIKEY>  (3) 
CKLJMWTZIZZHCS-REOHCLBHSA-N

$$$$
E
     RDKit          2D

 10  9  0  0  0  0  0  0  0  0999 V2000
    1.2717   -1.9622    0.0000 N   0  0  0  0  0  0  0  0  0  0  0  0
    1.1946   -0.4642    0.0000 C   0  0  0  0  0  0  0  0  0  0  0  0
   -0.1413    0.2180    0.0000 C   0  0  0  0  0  0  0  0  0  0  0  0
   -1.4001   -0.5978    0.0000 C   0  0  0  0  0  0  0  0  0  0  0  0
   -2.7359    0.0845    0.0000 C   0  0  0  0  0  0  0  0  0  0  0  0
   -2.8131    1.5825    0.0000 O   0  0  0  0  0  0  0  0  0  0  0  0
   -3.9947   -0.7313    0.0000 O   0  0  0  0  0  0  0  0  0  0  0  0
    2.4533    0.3516    0.0000 C   0  0  0  0  0  0  0  0  0  0  0  0
    2.3762    1.8496    0.0000 O   0  0  0  0  0  0  0  0  0  0  0  0
    3.7892   -0.3306    0.0000 O   0  0  0  0  0  0  0  0  0  0  0  0
  2  1  1  1
  2  3  1  0
  3  4  1  0
  4  5  1  0
  5  6  2  0
  5  7  1  0
  2  8  1  0
  8  9  2  0
  8 10  1  0
M  END
>  <rName>  (4) 
E

>  <PQ_SYMBOL>  (4) 
E

>  <FULL_NAME>  (4) 
L-Glutamic acid

>  <IUPAC_CONDENSED>  (4) 
Glu

>  <IUPAC>  (4) 
(2S)-2-aminopentanedioic acid

>  <TYPE>  (4) 
Backbone

>  <CLASS>  (4) 
alpha

>  <ANALOG>  (4) 
Glu

>  <MOL_WT>  (4) 
147.13

>  <LOGP>  (4) 
-0.7368999999999997

>  <TPSA>  (4) 
100.62000000000002

>  <POPULARITY>  (4) 
94.8

>  <PROTECTED>  (4) 
TRUE

>  <SMILES>  (4) 
N[C@@H](CCC(=O)O)C(=O)O

>  <INCHIKEY>  (4) 
WHUUTDBJXJRKMK-VKHMYHEASA-N

$$$$
F
     RDKit          2D

 12 12  0  0  0  0  0  0  0  0999 V2000
   -1.2391    1.6805    0.0000 N   0  0  0  0  0  0  0  0  0  0  0  0
   -1.6184    0.2292    0.0000 C   0  0  0  0  0  0  0  0  0  0  0  0
   -0.5513   -0.8249    0.0000 C   0  0  0  0  0  0  0  0  0  0  0  0
    0.8952   -0.4278    0.0000 C   0  0  0  0  0  0  0  0  0  0  0  0
    1.2745    1.0235    0.0000 C   0  0  0  0  0  0  0  0  0  0  0  0
    2.7210    1.4206    0.0000 C   0  0  0  0  0  0  0  0  0  0  0  0
    3.7882    0.3665    0.0000 C   0  0  0  0  0  0  0  0  0  0  0  0
    3.4088   -1.0848    0.0000 C   0  0  0  0  0  0  0  0  0  0  0  0
    1.9624   -1.4819    0.0000 C   0  0  0  0  0  0  0  0  0  0  0  0
   -3.0649   -0.1679    0.0000 C   0  0  0  0  0  0  0  0  0  0  0  0
   -3.4442   -1.6191    0.0000 O   0  0  0  0  0  0  0  0  0  0  0  0
   -4.1321    0.8862    0.0000 O   0  0  0  0  0  0  0  0  0  0  0  0
  2  1  1  1
  2  3  1  0
  3  4  1  0
  4  5  2  0
  5  6  1  0
  6  7  2  0
  7  8  1  0
  8  9  2  0
  2 10  1  0
 10 11  2  0
 10 12  1  0
  9  4  1  0
M  END
>  <rName>  (5) 
F

>  <PQ_SYMBOL>  (5) 
F

>  <FULL_NAME>  (5) 
L-Phenylalanine

>  <IUPAC_CONDENSED>  (5) 
Phe

>  <IUPAC>  (5) 
(2S)-2-amino-3-phenylpropanoic acid

>  <TYPE>  (5) 
Backbone

>  <CLASS>  (5) 
alpha

>  <ANALOG>  (5) 
Phe

>  <MOL_WT>  (5) 
165.19199999999995

>  <LOGP>  (5) 
0.641

>  <TPSA>  (5) 
63.32000000000001

>  <POPULARITY>  (5) 
98.3

>  <PROTECTED>  (5) 
TRUE

>  <SMILES>  (5) 
N[C@@H](Cc1(ccccc1))C(=O)O

>  <INCHIKEY>  (5) 
COLNVLDHVKWLRT-QMMMGPOBSA-N

$$$$
G
     RDKit          2D

  5  4  0  0  0  0  0  0  0  0999 V2000
   -2.0785    0.0000    0.0000 N   0  0  0  0  0  0  0  0  0  0  0  0
   -0.7794   -0.7500    0.0000 C   0  0  0  0  0  0  0  0  0  0  0  0
    0.5196   -0.0000    0.0000 C   0  0  0  0  0  0  0  0  0  0  0  0
    0.5196    1.5000    0.0000 O   0  0  0  0  0  0  0  0  0  0  0  0
    1.8187   -0.7500    0.0000 O   0  0  0  0  0  0  0  0  0  0  0  0
  1  2  1  0
  2  3  1  0
  3  4  2  0
  3  5  1  0
M  END
>  <rName>  (6) 
G

>  <PQ_SYMBOL>  (6) 
G

>  <FULL_NAME>  (6) 
Glycine

>  <IUPAC_CONDENSED>  (6) 
Gly

>  <IUPAC>  (6) 
2-aminoacetic acid

>  <TYPE>  (6) 
Backbone

>  <CLASS>  (6) 
alpha

>  <ANALOG>  (6) 
Gly

>  <MOL_WT>  (6) 
75.067

>  <LOGP>  (6) 
-0.9702999999999999

>  <TPSA>  (6) 
63.32000000000001

>  <POPULARITY>  (6) 
99.8

>  <PROTECTED>  (6) 
TRUE

>  <SMILES>  (6) 
NCC(=O)O

>  <INCHIKEY>  (6) 
DHMQDGOQFOQNFH-UHFFFAOYSA-N

$$$$
H
     RDKit          2D

 11 11  0  0  0  0  0  0  0  0999 V2000
   -0.9461    1.6947    0.0000 N   0  0  0  0  0  0  0  0  0  0  0  0
   -1.3100    0.2395    0.0000 C   0  0  0  0  0  0  0  0  0  0  0  0
   -0.2317   -0.8032    0.0000 C   0  0  0  0  0  0  0  0  0  0  0  0
    1.2105   -0.3908    0.0000 C   0  0  0  0  0  0  0  0  0  0  0  0
    2.3919   -1.3151    0.0000 C   0  0  0  0  0  0  0  0  0  0  0  0
    3.6360   -0.4772    0.0000 N   0  0  0  0  0  0  0  0  0  0  0  0
    3.2236    0.9650    0.0000 C   0  0  0  0  0  0  0  0  0  0  0  0
    1.7245    1.0184    0.0000 N   0  0  0  0  0  0  0  0  0  0  0  0
   -2.7522   -0.1729    0.0000 C   0  0  0  0  0  0  0  0  0  0  0  0
   -3.1161   -1.6281    0.0000 O   0  0  0  0  0  0  0  0  0  0  0  0
   -3.8304    0.8698    0.0000 O   0  0  0  0  0  0  0  0  0  0  0  0
  2  1  1  1
  2  3  1  0
  3  4  1  0
  4  5  2  0
  5  6  1  0
  6  7  2  0
  7  8  1  0
  2  9  1  0
  9 10  2  0
  9 11  1  0
  8  4  1  0
M  END
>  <rName>  (7) 
H

>  <PQ_SYMBOL>  (7) 
H

>  <FULL_NAME>  (7) 
L-Histidine

>  <IUPAC_CONDENSED>  (7) 
His

>  <IUPAC>  (7) 
(2S)-2-amino-3-(1H-imidazol-5-yl)propanoic acid

>  <TYPE>  (7) 
Backbone

>  <CLASS>  (7) 
alpha

>  <ANALOG>  (7) 
His

>  <MOL_WT>  (7) 
155.15699999999998

>  <LOGP>  (7) 
-0.6359000000000001

>  <TPSA>  (7) 
92

>  <POPULARITY>  (7) 
93.4

>  <PROTECTED>  (7) 
TRUE

>  <SMILES>  (7) 
N[C@@H](Cc1(cnc[nH]1))C(=O)O

>  <INCHIKEY>  (7) 
HNDVDQJCIGZPNO-YFKPBYRVSA-N

$$$$
I
     RDKit          2D

  9  8  0  0  0  0  0  0  0  0999 V2000
    0.0000    2.3333    0.0000 N   0  0  0  0  0  0  0  0  0  0  0  0
    0.0000    0.8333    0.0000 C   0  0  0  0  0  0  0  0  0  0  0  0
   -1.2990    0.0833    0.0000 C   0  0  0  0  0  0  0  0  0  0  0  0
   -2.5981    0.8333    0.0000 C   0  0  0  0  0  0  0  0  0  0  0  0
   -1.2990   -1.4167    0.0000 C   0  0  0  0  0  0  0  0  0  0  0  0
   -0.0000   -2.1667    0.0000 C   0  0  0  0  0  0  0  0  0  0  0  0
    1.2990    0.0833    0.0000 C   0  0  0  0  0  0  0  0  0  0  0  0
    1.2990   -1.4167    0.0000 O   0  0  0  0  0  0  0  0  0  0  0  0
    2.5981    0.8333    0.0000 O   0  0  0  0  0  0  0  0  0  0  0  0
  2  1  1  6
  2  3  1  0
  3  4  1  6
  3  5  1  0
  5  6  1  0
  2  7  1  0
  7  8  2  0
  7  9  1  0
M  END
>  <rName>  (8) 
I

>  <PQ_SYMBOL>  (8) 
I

>  <FULL_NAME>  (8) 
L-Isoleucine, (2S,3S)-Isoleucine

>  <IUPAC_CONDENSED>  (8) 
Ile

>  <IUPAC>  (8) 
(2S,3S)-2-amino-3-methylpentanoic acid

>  <TYPE>  (8) 
Backbone

>  <CLASS>  (8) 
alpha

>  <ANALOG>  (8) 
Ile

>  <MOL_WT>  (8) 
131.175

>  <LOGP>  (8) 
0.44439999999999985

>  <TPSA>  (8) 
63.32000000000001

>  <POPULARITY>  (8) 
94.7

>  <PROTECTED>  (8) 
TRUE

>  <SMILES>  (8) 
N[C@@H]([C@@H](C)CC)C(=O)O

>  <INCHIKEY>  (8) 
AGPKZVBTJJNPAG-WHFBIAKZSA-N

$$$$
K
     RDKit          2D

 10  9  0  0  0  0  0  0  0  0999 V2000
   -1.4166    1.8843    0.0000 N   0  0  0  0  0  0  0  0  0  0  0  0
   -1.4265    0.3844    0.0000 C   0  0  0  0  0  0  0  0  0  0  0  0
   -0.1324   -0.3741    0.0000 C   0  0  0  0  0  0  0  0  0  0  0  0
    1.1716    0.3673    0.0000 C   0  0  0  0  0  0  0  0  0  0  0  0
    2.4657   -0.3912    0.0000 C   0  0  0  0  0  0  0  0  0  0  0  0
    3.7696    0.3503    0.0000 C   0  0  0  0  0  0  0  0  0  0  0  0
    5.0637   -0.4082    0.0000 N   0  0  0  0  0  0  0  0  0  0  0  0
   -2.7304   -0.3571    0.0000 C   0  0  0  0  0  0  0  0  0  0  0  0
   -2.7402   -1.8571    0.0000 O   0  0  0  0  0  0  0  0  0  0  0  0
   -4.0245    0.4014    0.0000 O   0  0  0  0  0  0  0  0  0  0  0  0
  2  1  1  1
  2  3  1  0
  3  4  1  0
  4  5  1  0
  5  6  1  0
  6  7  1  0
  2  8  1  0
  8  9  2  0
  8 10  1  0
M  END
>  <rName>  (9) 
K

>  <PQ_SYMBOL>  (9) 
K

>  <FULL_NAME>  (9) 
L-Lysine

>  <IUPAC_CONDENSED>  (9) 
Lys

>  <IUPAC>  (9) 
(2S)-2,6-diaminohexanoic acid

>  <TYPE>  (9) 
Backbone

>  <CLASS>  (9) 
alpha

>  <ANALOG>  (9) 
Lys

>  <MOL_WT>  (9) 
146.19000000000003

>  <LOGP>  (9) 
-0.4727000000000004

>  <TPSA>  (9) 
89.34

>  <POPULARITY>  (9) 
96.9

>  <PROTECTED>  (9) 
TRUE

>  <SMILES>  (9) 
N[C@@H](CCCCN)C(=O)O

>  <INCHIKEY>  (9) 
KDXKERNSBIXSRK-YFKPBYRVSA-N

$$$$
L
     RDKit          2D

  9  8  0  0  0  0  0  0  0  0999 V2000
    0.2826   -1.7410    0.0000 N   0  0  0  0  0  0  0  0  0  0  0  0
    0.5402   -0.2633    0.0000 C   0  0  0  0  0  0  0  0  0  0  0  0
   -0.6108    0.6986    0.0000 C   0  0  0  0  0  0  0  0  0  0  0  0
   -2.0193    0.1828    0.0000 C   0  0  0  0  0  0  0  0  0  0  0  0
   -3.1703    1.1447    0.0000 C   0  0  0  0  0  0  0  0  0  0  0  0
   -2.2769   -1.2950    0.0000 C   0  0  0  0  0  0  0  0  0  0  0  0
    1.9487    0.2525    0.0000 C   0  0  0  0  0  0  0  0  0  0  0  0
    2.2062    1.7302    0.0000 O   0  0  0  0  0  0  0  0  0  0  0  0
    3.0997   -0.7094    0.0000 O   0  0  0  0  0  0  0  0  0  0  0  0
  2  1  1  1
  2  3  1  0
  3  4  1  0
  4  5  1  0
  4  6  1  0
  2  7  1  0
  7  8  2  0
  7  9  1  0
M  END
>  <rName>  (10) 
L

>  <PQ_SYMBOL>  (10) 
L

>  <FULL_NAME>  (10) 
L-Leucine

>  <IUPAC_CONDENSED>  (10) 
Leu

>  <IUPAC>  (10) 
(2S)-2-amino-4-methylpentanoic acid

>  <TYPE>  (10) 
Backbone

>  <CLASS>  (10) 
alpha

>  <ANALOG>  (10) 
Leu

>  <MOL_WT>  (10) 
131.175

>  <LOGP>  (10) 
0.44439999999999985

>  <TPSA>  (10) 
63.32000000000001

>  <POPULARITY>  (10) 
98.5

>  <PROTECTED>  (10) 
TRUE

>  <SMILES>  (10) 
N[C@@H](CC(C)C)C(=O)O

>  <INCHIKEY>  (10) 
ROHFNLRQFUQHCH-YFKPBYRVSA-N

$$$$
M
     RDKit          2D

  9  8  0  0  0  0  0  0  0  0999 V2000
    0.7616   -1.8791    0.0000 N   0  0  0  0  0  0  0  0  0  0  0  0
    0.8459   -0.3815    0.0000 C   0  0  0  0  0  0  0  0  0  0  0  0
   -0.4089    0.4403    0.0000 C   0  0  0  0  0  0  0  0  0  0  0  0
   -1.7480   -0.2354    0.0000 C   0  0  0  0  0  0  0  0  0  0  0  0
   -3.0029    0.5864    0.0000 S   0  0  0  0  0  0  0  0  0  0  0  0
   -4.3420   -0.0894    0.0000 C   0  0  0  0  0  0  0  0  0  0  0  0
    2.1851    0.2943    0.0000 C   0  0  0  0  0  0  0  0  0  0  0  0
    2.2694    1.7919    0.0000 O   0  0  0  0  0  0  0  0  0  0  0  0
    3.4399   -0.5275    0.0000 O   0  0  0  0  0  0  0  0  0  0  0  0
  2  1  1  1
  2  3  1  0
  3  4  1  0
  4  5  1  0
  5  6  1  0
  2  7  1  0
  7  8  2  0
  7  9  1  0
M  END
>  <rName>  (11) 
M

>  <PQ_SYMBOL>  (11) 
M

>  <FULL_NAME>  (11) 
L-Methionine

>  <IUPAC_CONDENSED>  (11) 
Met

>  <IUPAC>  (11) 
(2S)-2-amino-4-(methylsulfanyl)butanoic acid

>  <TYPE>  (11) 
Backbone

>  <CLASS>  (11) 
alpha

>  <ANALOG>  (11) 
Met

>  <MOL_WT>  (11) 
149.215

>  <LOGP>  (11) 
0.1513999999999997

>  <TPSA>  (11) 
63.32000000000001

>  <POPULARITY>  (11) 
92

>  <PROTECTED>  (11) 
TRUE

>  <SMILES>  (11) 
N[C@@H](CCSC)C(=O)O

>  <INCHIKEY>  (11) 
FFEARJCKVFRZRR-BYPYZUCNSA-N

$$$$
N
     RDKit          2D

  9  8  0  0  0  0  0  0  0  0999 V2000
   -0.2826   -1.7410    0.0000 N   0  0  0  0  0  0  0  0  0  0  0  0
   -0.5402   -0.2633    0.0000 C   0  0  0  0  0  0  0  0  0  0  0  0
    0.6108    0.6986    0.0000 C   0  0  0  0  0  0  0  0  0  0  0  0
    2.0193    0.1828    0.0000 C   0  0  0  0  0  0  0  0  0  0  0  0
    2.2769   -1.2950    0.0000 O   0  0  0  0  0  0  0  0  0  0  0  0
    3.1703    1.1447    0.0000 N   0  0  0  0  0  0  0  0  0  0  0  0
   -1.9487    0.2525    0.0000 C   0  0  0  0  0  0  0  0  0  0  0  0
   -2.2062    1.7302    0.0000 O   0  0  0  0  0  0  0  0  0  0  0  0
   -3.0997   -0.7094    0.0000 O   0  0  0  0  0  0  0  0  0  0  0  0
  2  1  1  6
  2  3  1  0
  3  4  1  0
  4  5  2  0
  4  6  1  0
  2  7  1  0
  7  8  2  0
  7  9  1  0
M  END
>  <rName>  (12) 
N

>  <PQ_SYMBOL>  (12) 
N

>  <FULL_NAME>  (12) 
L-Asparagine

>  <IUPAC_CONDENSED>  (12) 
Asn

>  <IUPAC>  (12) 
(2S)-2-amino-3-carbamoylpropanoic acid

>  <TYPE>  (12) 
Backbone

>  <CLASS>  (12) 
alpha

>  <ANALOG>  (12) 
Asn

>  <MOL_WT>  (12) 
132.119

>  <LOGP>  (12) 
-1.7263000000000002

>  <TPSA>  (12) 
106.41000000000001

>  <POPULARITY>  (12) 
94.3

>  <PROTECTED>  (12) 
TRUE

>  <SMILES>  (12) 
N[C@@H](CC(=O)N)C(=O)O

>  <INCHIKEY>  (12) 
DCXYFEDJOCDNAF-REOHCLBHSA-N

$$$$
P
     RDKit          2D

  8  8  0  0  0  0  0  0  0  0999 V2000
   -0.8342   -1.2135    0.0000 N   0  0  0  0  0  0  0  0  0  0  0  0
    0.0475   -0.0000    0.0000 C   0  0  0  0  0  0  0  0  0  0  0  0
   -0.8342    1.2135    0.0000 C   0  0  0  0  0  0  0  0  0  0  0  0
   -2.2608    0.7500    0.0000 C   0  0  0  0  0  0  0  0  0  0  0  0
   -2.2608   -0.7500    0.0000 C   0  0  0  0  0  0  0  0  0  0  0  0
    1.5475    0.0000    0.0000 C   0  0  0  0  0  0  0  0  0  0  0  0
    2.2975    1.2990    0.0000 O   0  0  0  0  0  0  0  0  0  0  0  0
    2.2975   -1.2990    0.0000 O   0  0  0  0  0  0  0  0  0  0  0  0
  1  2  1  0
  2  3  1  0
  3  4  1  0
  4  5  1  0
  2  6  1  1
  6  7  2  0
  6  8  1  0
  5  1  1  0
M  END
>  <rName>  (13) 
P

>  <PQ_SYMBOL>  (13) 
P

>  <FULL_NAME>  (13) 
L-Proline

>  <IUPAC_CONDENSED>  (13) 
Pro

>  <IUPAC>  (13) 
(2S)-pyrrolidine-2-carboxylic acid

>  <TYPE>  (13) 
Backbone

>  <CLASS>  (13) 
alpha

>  <ANALOG>  (13) 
Pro

>  <MOL_WT>  (13) 
115.13199999999999

>  <LOGP>  (13) 
-0.17700000000000032

>  <TPSA>  (13) 
49.33

>  <POPULARITY>  (13) 
98.1

>  <PROTECTED>  (13) 
TRUE

>  <SMILES>  (13) 
N1[C@@H](CCC1)C(=O)O

>  <INCHIKEY>  (13) 
ONIBWKKTOPOVIA-BYPYZUCNSA-N

$$$$
Q
     RDKit          2D

 10  9  0  0  0  0  0  0  0  0999 V2000
    1.2717   -1.9622    0.0000 N   0  0  0  0  0  0  0  0  0  0  0  0
    1.1946   -0.4642    0.0000 C   0  0  0  0  0  0  0  0  0  0  0  0
   -0.1413    0.2180    0.0000 C   0  0  0  0  0  0  0  0  0  0  0  0
   -1.4001   -0.5978    0.0000 C   0  0  0  0  0  0  0  0  0  0  0  0
   -2.7359    0.0845    0.0000 C   0  0  0  0  0  0  0  0  0  0  0  0
   -2.8131    1.5825    0.0000 O   0  0  0  0  0  0  0  0  0  0  0  0
   -3.9947   -0.7313    0.0000 N   0  0  0  0  0  0  0  0  0  0  0  0
    2.4533    0.3516    0.0000 C   0  0  0  0  0  0  0  0  0  0  0  0
    2.3762    1.8496    0.0000 O   0  0  0  0  0  0  0  0  0  0  0  0
    3.7892   -0.3306    0.0000 O   0  0  0  0  0  0  0  0  0  0  0  0
  2  1  1  1
  2  3  1  0
  3  4  1  0
  4  5  1  0
  5  6  2  0
  5  7  1  0
  2  8  1  0
  8  9  2  0
  8 10  1  0
M  END
>  <rName>  (14) 
Q

>  <PQ_SYMBOL>  (14) 
Q

>  <FULL_NAME>  (14) 
L-Glutamine

>  <IUPAC_CONDENSED>  (14) 
Gln

>  <IUPAC>  (14) 
(2S)-2-amino-4-carbamoylbutanoic acid

>  <TYPE>  (14) 
Backbone

>  <CLASS>  (14) 
alpha

>  <ANALOG>  (14) 
Gln

>  <MOL_WT>  (14) 
146.14600000000002

>  <LOGP>  (14) 
-1.336199999999999

>  <TPSA>  (14) 
106.41000000000001

>  <POPULARITY>  (14) 
95.1

>  <PROTECTED>  (14) 
TRUE

>  <SMILES>  (14) 
N[C@@H](CCC(=O)N)C(=O)O

>  <INCHIKEY>  (14) 
ZDXPYRJPNDTMRX-VKHMYHEASA-N

$$$$
R
     RDKit          2D

 12 11  0  0  0  0  0  0  0  0999 V2000
    2.4617   -1.9005    0.0000 N   0  0  0  0  0  0  0  0  0  0  0  0
    2.4001   -0.4018    0.0000 C   0  0  0  0  0  0  0  0  0  0  0  0
    1.0713    0.2943    0.0000 C   0  0  0  0  0  0  0  0  0  0  0  0
   -0.1958   -0.5085    0.0000 C   0  0  0  0  0  0  0  0  0  0  0  0
   -1.5245    0.1875    0.0000 C   0  0  0  0  0  0  0  0  0  0  0  0
   -2.7917   -0.6152    0.0000 N   0  0  0  0  0  0  0  0  0  0  0  0
   -4.1204    0.0808    0.0000 C   0  0  0  0  0  0  0  0  0  0  0  0
   -4.1820    1.5796    0.0000 N   0  0  0  0  0  0  0  0  0  0  0  0
   -5.3876   -0.7219    0.0000 N   0  0  0  0  0  0  0  0  0  0  0  0
    3.6672    0.4010    0.0000 C   0  0  0  0  0  0  0  0  0  0  0  0
    3.6056    1.8997    0.0000 O   0  0  0  0  0  0  0  0  0  0  0  0
    4.9960   -0.2950    0.0000 O   0  0  0  0  0  0  0  0  0  0  0  0
  2  1  1  1
  2  3  1  0
  3  4  1  0
  4  5  1  0
  5  6  1  0
  6  7  1  0
  7  8  2  0
  7  9  1  0
  2 10  1  0
 10 11  2  0
 10 12  1  0
M  END
>  <rName>  (15) 
R

>  <PQ_SYMBOL>  (15) 
R

>  <FULL_NAME>  (15) 
L-Arginine

>  <IUPAC_CONDENSED>  (15) 
Arg

>  <IUPAC>  (15) 
(2S)-2-amino-5-(((amino)(imino)methyl)amino)pentanoic acid

>  <TYPE>  (15) 
Backbone

>  <CLASS>  (15) 
alpha

>  <ANALOG>  (15) 
Arg

>  <MOL_WT>  (15) 
174.204

>  <LOGP>  (15) 
-1.338429999999999

>  <TPSA>  (15) 
125.22000000000001

>  <POPULARITY>  (15) 
96.3

>  <PROTECTED>  (15) 
TRUE

>  <SMILES>  (15) 
N[C@@H](CCCNC(=N)N)C(=O)O

>  <INCHIKEY>  (15) 
ODKSFYDXXFIFQN-BYPYZUCNSA-N

$$$$
S
     RDKit          2D

  7  6  0  0  0  0  0  0  0  0999 V2000
    0.5797   -1.7367    0.0000 N   0  0  0  0  0  0  0  0  0  0  0  0
    0.2514   -0.2730    0.0000 C   0  0  0  0  0  0  0  0  0  0  0  0
    1.3548    0.7431    0.0000 C   0  0  0  0  0  0  0  0  0  0  0  0
    2.7865    0.2956    0.0000 O   0  0  0  0  0  0  0  0  0  0  0  0
   -1.1803    0.1745    0.0000 C   0  0  0  0  0  0  0  0  0  0  0  0
   -1.5086    1.6381    0.0000 O   0  0  0  0  0  0  0  0  0  0  0  0
   -2.2837   -0.8417    0.0000 O   0  0  0  0  0  0  0  0  0  0  0  0
  2  1  1  6
  2  3  1  0
  3  4  1  0
  2  5  1  0
  5  6  2  0
  5  7  1  0
M  END
>  <rName>  (16) 
S

>  <PQ_SYMBOL>  (16) 
S

>  <FULL_NAME>  (16) 
L-Serine

>  <IUPAC_CONDENSED>  (16) 
Ser

>  <IUPAC>  (16) 
(2S)-2-amino-3-hydroxypropanoic acid

>  <TYPE>  (16) 
Backbone

>  <CLASS>  (16) 
alpha

>  <ANALOG>  (16) 
Ser

>  <MOL_WT>  (16) 
105.09299999999999

>  <LOGP>  (16) 
-1.6093999999999997

>  <TPSA>  (16) 
83.55

>  <POPULARITY>  (16) 
96.5

>  <PROTECTED>  (16) 
TRUE

>  <SMILES>  (16) 
N[C@@H](CO)C(=O)O

>  <INCHIKEY>  (16) 
MTCFGRXMJLQNBG-REOHCLBHSA-N

$$$$
T
     RDKit          2D

  8  7  0  0  0  0  0  0  0  0999 V2000
    0.0000   -2.0625    0.0000 N   0  0  0  0  0  0  0  0  0  0  0  0
    0.0000   -0.5625    0.0000 C   0  0  0  0  0  0  0  0  0  0  0  0
   -1.2990    0.1875    0.0000 C   0  0  0  0  0  0  0  0  0  0  0  0
   -1.2990    1.6875    0.0000 O   0  0  0  0  0  0  0  0  0  0  0  0
   -2.5981   -0.5625    0.0000 C   0  0  0  0  0  0  0  0  0  0  0  0
    1.2990    0.1875    0.0000 C   0  0  0  0  0  0  0  0  0  0  0  0
    1.2990    1.6875    0.0000 O   0  0  0  0  0  0  0  0  0  0  0  0
    2.5981   -0.5625    0.0000 O   0  0  0  0  0  0  0  0  0  0  0  0
  2  1  1  1
  2  3  1  0
  3  4  1  0
  3  5  1  1
  2  6  1  0
  6  7  2  0
  6  8  1  0
M  END
>  <rName>  (17) 
T

>  <PQ_SYMBOL>  (17) 
T

>  <FULL_NAME>  (17) 
L-Threonine, (2S,3R)-Threonine

>  <IUPAC_CONDENSED>  (17) 
Thr

>  <IUPAC>  (17) 
(2S,3R)-2-amino-3-hydroxybutanoic acid

>  <TYPE>  (17) 
Backbone

>  <CLASS>  (17) 
alpha

>  <ANALOG>  (17) 
Thr

>  <MOL_WT>  (17) 
119.11999999999999

>  <LOGP>  (17) 
-1.2209

>  <TPSA>  (17) 
83.55

>  <POPULARITY>  (17) 
94

>  <PROTECTED>  (17) 
TRUE

>  <SMILES>  (17) 
N[C@@H]([C@H](O)C)C(=O)O

>  <INCHIKEY>  (17) 
AYFVYJQAPQTCCC-GBXIJSLDSA-N

$$$$
V
     RDKit          2D

  8  7  0  0  0  0  0  0  0  0999 V2000
    0.0000    2.0625    0.0000 N   0  0  0  0  0  0  0  0  0  0  0  0
    0.0000    0.5625    0.0000 C   0  0  0  0  0  0  0  0  0  0  0  0
   -1.2990   -0.1875    0.0000 C   0  0  0  0  0  0  0  0  0  0  0  0
   -2.5981    0.5625    0.0000 C   0  0  0  0  0  0  0  0  0  0  0  0
   -1.2990   -1.6875    0.0000 C   0  0  0  0  0  0  0  0  0  0  0  0
    1.2990   -0.1875    0.0000 C   0  0  0  0  0  0  0  0  0  0  0  0
    1.2990   -1.6875    0.0000 O   0  0  0  0  0  0  0  0  0  0  0  0
    2.5981    0.5625    0.0000 O   0  0  0  0  0  0  0  0  0  0  0  0
  2  1  1  6
  2  3  1  0
  3  4  1  0
  3  5  1  0
  2  6  1  0
  6  7  2  0
  6  8  1  0
M  END
>  <rName>  (18) 
V

>  <PQ_SYMBOL>  (18) 
V

>  <FULL_NAME>  (18) 
L-Valine

>  <IUPAC_CONDENSED>  (18) 
Val

>  <IUPAC>  (18) 
(2S)-2-amino-3-methylbutanoic acid

>  <TYPE>  (18) 
Backbone

>  <CLASS>  (18) 
alpha

>  <ANALOG>  (18) 
Val

>  <MOL_WT>  (18) 
117.14799999999998

>  <LOGP>  (18) 
0.05429999999999996

>  <TPSA>  (18) 
63.32000000000001

>  <POPULARITY>  (18) 
97.7

>  <PROTECTED>  (18) 
TRUE

>  <SMILES>  (18) 
N[C@@H](C(C)C)C(=O)O

>  <INCHIKEY>  (18) 
KZSNJWFQEVHDMF-BYPYZUCNSA-N

$$$$
W
     RDKit          2D

 15 16  0  0  0  0  0  0  0  0999 V2000
   -2.6183   -1.7023    0.0000 N   0  0  0  0  0  0  0  0  0  0  0  0
   -2.5622   -0.2034    0.0000 C   0  0  0  0  0  0  0  0  0  0  0  0
   -1.2360    0.4975    0.0000 C   0  0  0  0  0  0  0  0  0  0  0  0
    0.0341   -0.3006    0.0000 C   0  0  0  0  0  0  0  0  0  0  0  0
    0.1349   -1.7972    0.0000 C   0  0  0  0  0  0  0  0  0  0  0  0
    1.5895   -2.1637    0.0000 N   0  0  0  0  0  0  0  0  0  0  0  0
    2.3875   -0.8937    0.0000 C   0  0  0  0  0  0  0  0  0  0  0  0
    3.8654   -0.6369    0.0000 C   0  0  0  0  0  0  0  0  0  0  0  0
    4.3820    0.7713    0.0000 C   0  0  0  0  0  0  0  0  0  0  0  0
    3.4207    1.9228    0.0000 C   0  0  0  0  0  0  0  0  0  0  0  0
    1.9429    1.6661    0.0000 C   0  0  0  0  0  0  0  0  0  0  0  0
    1.4263    0.2578    0.0000 C   0  0  0  0  0  0  0  0  0  0  0  0
   -3.8322    0.5947    0.0000 C   0  0  0  0  0  0  0  0  0  0  0  0
   -3.7761    2.0937    0.0000 O   0  0  0  0  0  0  0  0  0  0  0  0
   -5.1584   -0.1061    0.0000 O   0  0  0  0  0  0  0  0  0  0  0  0
  2  1  1  6
  2  3  1  0
  3  4  1  0
  4  5  2  0
  5  6  1  0
  6  7  1  0
  7  8  2  0
  8  9  1  0
  9 10  2  0
 10 11  1  0
 11 12  2  0
  2 13  1  0
 13 14  2  0
 13 15  1  0
 12  4  1  0
 12  7  1  0
M  END
>  <rName>  (19) 
W

>  <PQ_SYMBOL>  (19) 
W

>  <FULL_NAME>  (19) 
L-Tryptophan

>  <IUPAC_CONDENSED>  (19) 
Trp

>  <IUPAC>  (19) 
(2S)-2-amino-3-(1H-indol-3-yl)propanoic acid

>  <TYPE>  (19) 
Backbone

>  <CLASS>  (19) 
alpha

>  <ANALOG>  (19) 
Trp

>  <MOL_WT>  (19) 
204.22899999999998

>  <LOGP>  (19) 
1.1223000000000003

>  <TPSA>  (19) 
79.11

>  <POPULARITY>  (19) 
93.1

>  <PROTECTED>  (19) 
TRUE

>  <SMILES>  (19) 
N[C@@H](Cc1(c[nH]c2(ccccc12)))C(=O)O

>  <INCHIKEY>  (19) 
QIVBCDIJIAJPQS-VIFPVBQESA-N

$$$$
Y
     RDKit          2D

 13 13  0  0  0  0  0  0  0  0999 V2000
   -1.5766    1.6851    0.0000 N   0  0  0  0  0  0  0  0  0  0  0  0
   -2.0128    0.2500    0.0000 C   0  0  0  0  0  0  0  0  0  0  0  0
   -0.9880   -0.8454    0.0000 C   0  0  0  0  0  0  0  0  0  0  0  0
    0.4730   -0.5055    0.0000 C   0  0  0  0  0  0  0  0  0  0  0  0
    0.9092    0.9296    0.0000 C   0  0  0  0  0  0  0  0  0  0  0  0
    2.3702    1.2695    0.0000 C   0  0  0  0  0  0  0  0  0  0  0  0
    3.3950    0.1741    0.0000 C   0  0  0  0  0  0  0  0  0  0  0  0
    4.8560    0.5140    0.0000 O   0  0  0  0  0  0  0  0  0  0  0  0
    2.9588   -1.2611    0.0000 C   0  0  0  0  0  0  0  0  0  0  0  0
    1.4978   -1.6009    0.0000 C   0  0  0  0  0  0  0  0  0  0  0  0
   -3.4738   -0.0899    0.0000 C   0  0  0  0  0  0  0  0  0  0  0  0
   -3.9100   -1.5250    0.0000 O   0  0  0  0  0  0  0  0  0  0  0  0
   -4.4986    1.0055    0.0000 O   0  0  0  0  0  0  0  0  0  0  0  0
  2  1  1  1
  2  3  1  0
  3  4  1  0
  4  5  1  0
  5  6  2  0
  6  7  1  0
  7  8  1  0
  7  9  2  0
  9 10  1  0
  2 11  1  0
 11 12  2  0
 11 13  1  0
 10  4  2  0
M  END
>  <rName>  (20) 
Y

>  <PQ_SYMBOL>  (20) 
Y

>  <FULL_NAME>  (20) 
L-Tyrosine

>  <IUPAC_CONDENSED>  (20) 
Tyr

>  <IUPAC>  (20) 
(2S)-2-amino-3-(4-hydroxyphenyl)propanoic acid

>  <TYPE>  (20) 
Backbone

>  <CLASS>  (20) 
alpha

>  <ANALOG>  (20) 
Tyr

>  <MOL_WT>  (20) 
181.19099999999997

>  <LOGP>  (20) 
0.3466

>  <TPSA>  (20) 
83.55

>  <POPULARITY>  (20) 
96.6

>  <PROTECTED>  (20) 
TRUE

>  <SMILES>  (20) 
N[C@@H](Cc1(ccc(O)cc1))C(=O)O

>  <INCHIKEY>  (20) 
OUYCCCASQSFEME-QMMMGPOBSA-N

$$$$
