Ac
     RDKit          2D

  4  3  0  0  0  0  0  0  0  0999 V2000
    0.0000    1.5000    0.0000 O   0  0  0  0  0  0  0  0  0  0  0  0
    0.0000    0.0000    0.0000 C   0  0  0  0  0  0  0  0  0  0  0  0
   -1.2990   -0.7500    0.0000 C   0  0  0  0  0  0  0  0  0  0  0  0
    1.2990   -0.7500    0.0000 O   0  0  0  0  0  0  0  0  0  0  0  0
  1  2  2  0
  2  3  1  0
  2  4  1  0
M  END
>  <rName>  (1) 
Ac

>  <PQ_SYMBOL>  (1) 
Ac

>  <FULL_NAME>  (1) 
Acetyl, acetic acid

>  <IUPAC_CONDENSED>  (1) 
Ac

>  <IUPAC>  (1) 
acetic acid

>  <TYPE>  (1) 
N-term cap

>  <CLASS>  (1) 
n_cap

>  <ANALOG>  (1) 
X

>  <MOL_WT>  (1) 
60.05200000000001

>  <LOGP>  (1) 
0.09089999999999993

>  <TPSA>  (1) 
37.3

>  <POPULARITY>  (1) 
25

>  <PROTECTED>  (1) 
FALSE

>  <SMILES>  (1) 
O=C(C)O

>  <INCHIKEY>  (1) 
QTBSBXVTEAMEQO-UHFFFAOYSA-N

$$$$
Am
     RDKit          2D

  1  0  0  0  0  0  0  0  0  0999 V2000
    0.0000    0.0000    0.0000 N   0  0  0  0  0  0  0  0  0  0  0  0
M  END
>  <rName>  (2) 
Am

>  <PQ_SYMBOL>  (2) 
Am

>  <FULL_NAME>  (2) 
Amine

>  <IUPAC_CONDENSED>  (2) 
Amide

>  <IUPAC>  (2) 
azane

>  <TYPE>  (2) 
C-term cap

>  <CLASS>  (2) 
c_cap

>  <ANALOG>  (2) 
X

>  <MOL_WT>  (2) 
17.031

>  <LOGP>  (2) 
0.16199999999999998

>  <TPSA>  (2) 
35

>  <POPULARITY>  (2) 
26.9

>  <PROTECTED>  (2) 
FALSE

>  <SMILES>  (2) 
N

>  <INCHIKEY>  (2) 
QGZKDVFQNNGYKY-UHFFFAOYSA-N

$$$$
butanoyl
     RDKit          2D

  6  5  0  0  0  0  0  0  0  0999 V2000
   -2.8748   -0.2197    0.0000 C   0  0  0  0  0  0  0  0  0  0  0  0
   -1.4825    0.3386    0.0000 C   0  0  0  0  0  0  0  0  0  0  0  0
   -0.3029   -0.5880    0.0000 C   0  0  0  0  0  0  0  0  0  0  0  0
    1.0893   -0.0297    0.0000 C   0  0  0  0  0  0  0  0  0  0  0  0
    1.3020    1.4551    0.0000 O   0  0  0  0  0  0  0  0  0  0  0  0
    2.2689   -0.9563    0.0000 O   0  0  0  0  0  0  0  0  0  0  0  0
  1  2  1  0
  2  3  1  0
  3  4  1  0
  4  5  2  0
  4  6  1  0
M  END
>  <rName>  (3) 
butanoyl

>  <PQ_SYMBOL>  (3) 
butanoyl

>  <FULL_NAME>  (3) 
Butir, Butyric acid

>  <IUPAC_CONDENSED>  (3) 
butanoyl

>  <IUPAC>  (3) 
butanoic acid

>  <TYPE>  (3) 
N-term cap

>  <CLASS>  (3) 
n_cap

>  <ANALOG>  (3) 
X

>  <MOL_WT>  (3) 
88.10599999999998

>  <LOGP>  (3) 
0.8711

>  <TPSA>  (3) 
37.3

>  <POPULARITY>  (3) 
15

>  <PROTECTED>  (3) 
FALSE

>  <SMILES>  (3) 
CCCC(=O)O

>  <INCHIKEY>  (3) 
FERIUCNNQQJTOY-UHFFFAOYSA-N

$$$$
2f
     RDKit          2D

  8  8  0  0  0  0  0  0  0  0999 V2000
   -2.2608   -0.7500    0.0000 C   0  0  0  0  0  0  0  0  0  0  0  0
   -0.8342   -1.2135    0.0000 O   0  0  0  0  0  0  0  0  0  0  0  0
    0.0475    0.0000    0.0000 C   0  0  0  0  0  0  0  0  0  0  0  0
   -0.8342    1.2135    0.0000 C   0  0  0  0  0  0  0  0  0  0  0  0
   -2.2608    0.7500    0.0000 C   0  0  0  0  0  0  0  0  0  0  0  0
    1.5475    0.0000    0.0000 C   0  0  0  0  0  0  0  0  0  0  0  0
    2.2975    1.2990    0.0000 O   0  0  0  0  0  0  0  0  0  0  0  0
    2.2975   -1.2990    0.0000 O   0  0  0  0  0  0  0  0  0  0  0  0
  1  2  1  0
  2  3  1  0
  3  4  2  0
  4  5  1  0
  3  6  1  0
  6  7  2  0
  6  8  1  0
  5  1  2  0
M  END
>  <rName>  (4) 
2f

>  <PQ_SYMBOL>  (4) 
2f

>  <FULL_NAME>  (4) 
2-Furoyl, Furan-2-carboxylic acid

>  <IUPAC_CONDENSED>  (4) 
2f

>  <IUPAC>  (4) 
furan-2-carboxylic acid

>  <TYPE>  (4) 
N-term cap

>  <CLASS>  (4) 
n_cap

>  <ANALOG>  (4) 
X

>  <MOL_WT>  (4) 
112.08399999999997

>  <LOGP>  (4) 
0.9778

>  <TPSA>  (4) 
50.44

>  <POPULARITY>  (4) 
14.7

>  <PROTECTED>  (4) 
TRUE

>  <SMILES>  (4) 
c1oc(cc1)C(=O)O

>  <INCHIKEY>  (4) 
SMNDYUVBFMFKNZ-UHFFFAOYSA-N

$$$$
Isox_3DiFMe
     RDKit          2D

 11 11  0  0  0  0  0  0  0  0999 V2000
   -3.7548    0.6981    0.0000 F   0  0  0  0  0  0  0  0  0  0  0  0
   -2.6401   -0.3056    0.0000 C   0  0  0  0  0  0  0  0  0  0  0  0
   -2.9520   -1.7729    0.0000 F   0  0  0  0  0  0  0  0  0  0  0  0
   -1.2135    0.1579    0.0000 C   0  0  0  0  0  0  0  0  0  0  0  0
   -0.0000   -0.7238    0.0000 C   0  0  0  0  0  0  0  0  0  0  0  0
    1.2135    0.1579    0.0000 C   0  0  0  0  0  0  0  0  0  0  0  0
    0.7500    1.5845    0.0000 O   0  0  0  0  0  0  0  0  0  0  0  0
   -0.7500    1.5845    0.0000 N   0  0  0  0  0  0  0  0  0  0  0  0
    2.6401   -0.3056    0.0000 C   0  0  0  0  0  0  0  0  0  0  0  0
    3.7548    0.6981    0.0000 O   0  0  0  0  0  0  0  0  0  0  0  0
    2.9520   -1.7729    0.0000 O   0  0  0  0  0  0  0  0  0  0  0  0
  1  2  1  0
  2  3  1  0
  2  4  1  0
  4  5  1  0
  5  6  2  0
  6  7  1  0
  7  8  1  0
  6  9  1  0
  9 10  2  0
  9 11  1  0
  8  4  2  0
M  END
>  <rName>  (5) 
Isox_3DiFMe

>  <PQ_SYMBOL>  (5) 
Isox_3DiFMe

>  <FULL_NAME>  (5) 
3-(Difluoromethyl)-1,2-oxazole-5-carboxylic acid

>  <IUPAC_CONDENSED>  (5) 
Isox(3-DiFMe)

>  <IUPAC>  (5) 
3-(difluoromethyl)isoxazole-5-carboxylic acid

>  <TYPE>  (5) 
N-term cap

>  <CLASS>  (5) 
n_cap

>  <ANALOG>  (5) 
X

>  <MOL_WT>  (5) 
163.07899999999998

>  <LOGP>  (5) 
1.3103999999999996

>  <TPSA>  (5) 
63.33

>  <POPULARITY>  (5) 
4.4

>  <PROTECTED>  (5) 
TRUE

>  <SMILES>  (5) 
FC(F)c1cc(on1)C(=O)O

>  <INCHIKEY>  (5) 
YPRXRMMWUDMDGD-UHFFFAOYSA-N

$$$$
Ac_Isox_3Me
     RDKit          2D

 10 10  0  0  0  0  0  0  0  0999 V2000
   -3.2141   -1.5316    0.0000 C   0  0  0  0  0  0  0  0  0  0  0  0
   -2.1725   -0.4522    0.0000 C   0  0  0  0  0  0  0  0  0  0  0  0
   -0.6871   -0.6604    0.0000 C   0  0  0  0  0  0  0  0  0  0  0  0
   -0.0300    0.6881    0.0000 C   0  0  0  0  0  0  0  0  0  0  0  0
   -1.1095    1.7296    0.0000 O   0  0  0  0  0  0  0  0  0  0  0  0
   -2.4336    1.0249    0.0000 N   0  0  0  0  0  0  0  0  0  0  0  0
    1.4471    0.9491    0.0000 C   0  0  0  0  0  0  0  0  0  0  0  0
    2.4117   -0.1996    0.0000 C   0  0  0  0  0  0  0  0  0  0  0  0
    1.8992   -1.6093    0.0000 O   0  0  0  0  0  0  0  0  0  0  0  0
    3.8888    0.0615    0.0000 O   0  0  0  0  0  0  0  0  0  0  0  0
  1  2  1  0
  2  3  1  0
  3  4  2  0
  4  5  1  0
  5  6  1  0
  4  7  1  0
  7  8  1  0
  8  9  2  0
  8 10  1  0
  6  2  2  0
M  END
>  <rName>  (6) 
Ac_Isox_3Me

>  <PQ_SYMBOL>  (6) 
Ac_Isox_3Me

>  <FULL_NAME>  (6) 
2-(3-Methylisoxazol-5-yl)acetic acid

>  <IUPAC_CONDENSED>  (6) 
Ac(Isox(3-Me))

>  <IUPAC>  (6) 
2-(3-methylisoxazol-5-yl)acetic acid

>  <TYPE>  (6) 
N-term cap

>  <CLASS>  (6) 
n_cap

>  <ANALOG>  (6) 
X

>  <MOL_WT>  (6) 
141.126

>  <LOGP>  (6) 
0.61012

>  <TPSA>  (6) 
63.33

>  <POPULARITY>  (6) 
7.9

>  <PROTECTED>  (6) 
TRUE

>  <SMILES>  (6) 
Cc1cc(on1)CC(=O)O

>  <INCHIKEY>  (6) 
POEFJFLAFQWOTL-UHFFFAOYSA-N

$$$$
Isox_3Me
     RDKit          2D

  9  9  0  0  0  0  0  0  0  0999 V2000
   -3.3052   -0.8467    0.0000 C   0  0  0  0  0  0  0  0  0  0  0  0
   -1.9481   -0.2077    0.0000 C   0  0  0  0  0  0  0  0  0  0  0  0
   -0.6334   -0.9301    0.0000 C   0  0  0  0  0  0  0  0  0  0  0  0
    0.4598    0.0969    0.0000 C   0  0  0  0  0  0  0  0  0  0  0  0
   -0.1792    1.4541    0.0000 O   0  0  0  0  0  0  0  0  0  0  0  0
   -1.6673    1.2657    0.0000 N   0  0  0  0  0  0  0  0  0  0  0  0
    1.9333   -0.1838    0.0000 C   0  0  0  0  0  0  0  0  0  0  0  0
    2.9132    0.9519    0.0000 O   0  0  0  0  0  0  0  0  0  0  0  0
    2.4269   -1.6003    0.0000 O   0  0  0  0  0  0  0  0  0  0  0  0
  1  2  1  0
  2  3  1  0
  3  4  2  0
  4  5  1  0
  5  6  1  0
  4  7  1  0
  7  8  2  0
  7  9  1  0
  6  2  2  0
M  END
>  <rName>  (7) 
Isox_3Me

>  <PQ_SYMBOL>  (7) 
Isox_3Me

>  <FULL_NAME>  (7) 
3-Methylisoxazole-5-carboxylic acid

>  <IUPAC_CONDENSED>  (7) 
Isox(3-Me)

>  <IUPAC>  (7) 
3-methylisoxazole-5-carboxylic acid

>  <TYPE>  (7) 
N-term cap

>  <CLASS>  (7) 
n_cap

>  <ANALOG>  (7) 
X

>  <MOL_WT>  (7) 
127.09899999999999

>  <LOGP>  (7) 
0.6812199999999999

>  <TPSA>  (7) 
63.33

>  <POPULARITY>  (7) 
8.9

>  <PROTECTED>  (7) 
TRUE

>  <SMILES>  (7) 
Cc1cc(on1)C(=O)O

>  <INCHIKEY>  (7) 
HXIYCKAAQPHZBM-UHFFFAOYSA-N

$$$$
imidazole-4-carbonyl
     RDKit          2D

  8  8  0  0  0  0  0  0  0  0999 V2000
   -2.2608   -0.7500    0.0000 N   0  0  0  0  0  0  0  0  0  0  0  0
   -0.8342   -1.2135    0.0000 C   0  0  0  0  0  0  0  0  0  0  0  0
    0.0475    0.0000    0.0000 C   0  0  0  0  0  0  0  0  0  0  0  0
   -0.8342    1.2135    0.0000 N   0  0  0  0  0  0  0  0  0  0  0  0
   -2.2608    0.7500    0.0000 C   0  0  0  0  0  0  0  0  0  0  0  0
    1.5475    0.0000    0.0000 C   0  0  0  0  0  0  0  0  0  0  0  0
    2.2975    1.2990    0.0000 O   0  0  0  0  0  0  0  0  0  0  0  0
    2.2975   -1.2990    0.0000 O   0  0  0  0  0  0  0  0  0  0  0  0
  1  2  1  0
  2  3  2  0
  3  4  1  0
  4  5  2  0
  3  6  1  0
  6  7  2  0
  6  8  1  0
  5  1  1  0
M  END
>  <rName>  (8) 
imidazole-4-carbonyl

>  <PQ_SYMBOL>  (8) 
imidazole-4-carbonyl

>  <FULL_NAME>  (8) 
4-Imidazolecarboxylic acid

>  <IUPAC_CONDENSED>  (8) 
imidazole-4-carbonyl

>  <IUPAC>  (8) 
1H-imidazole-4-carboxylic acid

>  <TYPE>  (8) 
N-term cap

>  <CLASS>  (8) 
n_cap

>  <ANALOG>  (8) 
X

>  <MOL_WT>  (8) 
112.08799999999998

>  <LOGP>  (8) 
0.1079

>  <TPSA>  (8) 
65.98

>  <POPULARITY>  (8) 
14.1

>  <PROTECTED>  (8) 
TRUE

>  <SMILES>  (8) 
[nH]1cc(nc1)C(=O)O

>  <INCHIKEY>  (8) 
NKWCGTOZTHZDHB-UHFFFAOYSA-N

$$$$
Ac_Ph
     RDKit          2D

 10 10  0  0  0  0  0  0  0  0999 V2000
   -3.0048   -0.4910    0.0000 C   0  0  0  0  0  0  0  0  0  0  0  0
   -2.7213    0.9820    0.0000 C   0  0  0  0  0  0  0  0  0  0  0  0
   -1.3040    1.4730    0.0000 C   0  0  0  0  0  0  0  0  0  0  0  0
   -0.1701    0.4910    0.0000 C   0  0  0  0  0  0  0  0  0  0  0  0
   -0.4536   -0.9820    0.0000 C   0  0  0  0  0  0  0  0  0  0  0  0
   -1.8709   -1.4730    0.0000 C   0  0  0  0  0  0  0  0  0  0  0  0
    1.2473    0.9820    0.0000 C   0  0  0  0  0  0  0  0  0  0  0  0
    2.3812   -0.0000    0.0000 C   0  0  0  0  0  0  0  0  0  0  0  0
    2.0977   -1.4730    0.0000 O   0  0  0  0  0  0  0  0  0  0  0  0
    3.7985    0.4910    0.0000 O   0  0  0  0  0  0  0  0  0  0  0  0
  1  2  2  0
  2  3  1  0
  3  4  2  0
  4  5  1  0
  5  6  2  0
  4  7  1  0
  7  8  1  0
  8  9  2  0
  8 10  1  0
  6  1  1  0
M  END
>  <rName>  (9) 
Ac_Ph

>  <PQ_SYMBOL>  (9) 
Ac_Ph

>  <FULL_NAME>  (9) 
2-phenylacetic acid

>  <IUPAC_CONDENSED>  (9) 
Ac(Ph)

>  <IUPAC>  (9) 
2-phenylacetic acid

>  <TYPE>  (9) 
N-term cap

>  <CLASS>  (9) 
n_cap

>  <ANALOG>  (9) 
X

>  <MOL_WT>  (9) 
136.14999999999998

>  <LOGP>  (9) 
1.3137

>  <TPSA>  (9) 
37.3

>  <POPULARITY>  (9) 
17.2

>  <PROTECTED>  (9) 
TRUE

>  <SMILES>  (9) 
c1ccc(cc1)CC(=O)O

>  <INCHIKEY>  (9) 
WLJVXDMOQOGPHL-UHFFFAOYSA-N

$$$$
5-guanidinopentanoyl
     RDKit          2D

 11 10  0  0  0  0  0  0  0  0999 V2000
   -5.1962    0.6818    0.0000 N   0  0  0  0  0  0  0  0  0  0  0  0
   -3.8971   -0.0682    0.0000 C   0  0  0  0  0  0  0  0  0  0  0  0
   -3.8971   -1.5682    0.0000 N   0  0  0  0  0  0  0  0  0  0  0  0
   -2.5981    0.6818    0.0000 N   0  0  0  0  0  0  0  0  0  0  0  0
   -1.2990   -0.0682    0.0000 C   0  0  0  0  0  0  0  0  0  0  0  0
   -0.0000    0.6818    0.0000 C   0  0  0  0  0  0  0  0  0  0  0  0
    1.2990   -0.0682    0.0000 C   0  0  0  0  0  0  0  0  0  0  0  0
    2.5981    0.6818    0.0000 C   0  0  0  0  0  0  0  0  0  0  0  0
    3.8971   -0.0682    0.0000 C   0  0  0  0  0  0  0  0  0  0  0  0
    3.8971   -1.5682    0.0000 O   0  0  0  0  0  0  0  0  0  0  0  0
    5.1962    0.6818    0.0000 O   0  0  0  0  0  0  0  0  0  0  0  0
  1  2  1  0
  2  3  2  0
  2  4  1  0
  4  5  1  0
  5  6  1  0
  6  7  1  0
  7  8  1  0
  8  9  1  0
  9 10  2  0
  9 11  1  0
M  END
>  <rName>  (10) 
5-guanidinopentanoyl

>  <PQ_SYMBOL>  (10) 
5-guanidinopentanoyl

>  <FULL_NAME>  (10) 
delta-Guanidinovaleric acid

>  <IUPAC_CONDENSED>  (10) 
5-guanidinopentanoyl

>  <IUPAC>  (10) 
5-(((amino)(imino)methyl)amino)pentanoic acid

>  <TYPE>  (10) 
N-term cap

>  <CLASS>  (10) 
n_cap

>  <ANALOG>  (10) 
X

>  <MOL_WT>  (10) 
159.18900000000002

>  <LOGP>  (10) 
-0.2756300000000001

>  <TPSA>  (10) 
99.2

>  <POPULARITY>  (10) 
14.3

>  <PROTECTED>  (10) 
TRUE

>  <SMILES>  (10) 
NC(=N)NCCCCC(=O)O

>  <INCHIKEY>  (10) 
UKUBCVAQGIZRHL-UHFFFAOYSA-N

$$$$
4-guanidinobutanoyl
     RDKit          2D

 10  9  0  0  0  0  0  0  0  0999 V2000
   -4.4693    0.9153    0.0000 N   0  0  0  0  0  0  0  0  0  0  0  0
   -3.2691    0.0155    0.0000 C   0  0  0  0  0  0  0  0  0  0  0  0
   -3.4483   -1.4737    0.0000 N   0  0  0  0  0  0  0  0  0  0  0  0
   -1.8898    0.6050    0.0000 N   0  0  0  0  0  0  0  0  0  0  0  0
   -0.6897   -0.2947    0.0000 C   0  0  0  0  0  0  0  0  0  0  0  0
    0.6897    0.2947    0.0000 C   0  0  0  0  0  0  0  0  0  0  0  0
    1.8898   -0.6050    0.0000 C   0  0  0  0  0  0  0  0  0  0  0  0
    3.2691   -0.0155    0.0000 C   0  0  0  0  0  0  0  0  0  0  0  0
    3.4483    1.4737    0.0000 O   0  0  0  0  0  0  0  0  0  0  0  0
    4.4693   -0.9153    0.0000 O   0  0  0  0  0  0  0  0  0  0  0  0
  1  2  1  0
  2  3  2  0
  2  4  1  0
  4  5  1  0
  5  6  1  0
  6  7  1  0
  7  8  1  0
  8  9  2  0
  8 10  1  0
M  END
>  <rName>  (11) 
4-guanidinobutanoyl

>  <PQ_SYMBOL>  (11) 
4-guanidinobutanoyl

>  <FULL_NAME>  (11) 
4-Guanidinobutyric acid

>  <IUPAC_CONDENSED>  (11) 
4-guanidinobutanoyl

>  <IUPAC>  (11) 
4-(((amino)(imino)methyl)amino)butanoic acid

>  <TYPE>  (11) 
N-term cap

>  <CLASS>  (11) 
n_cap

>  <ANALOG>  (11) 
X

>  <MOL_WT>  (11) 
145.162

>  <LOGP>  (11) 
-0.6657299999999999

>  <TPSA>  (11) 
99.2

>  <POPULARITY>  (11) 
9.4

>  <PROTECTED>  (11) 
TRUE

>  <SMILES>  (11) 
NC(=N)NCCCC(=O)O

>  <INCHIKEY>  (11) 
TUHVEAJXIMEOSA-UHFFFAOYSA-N

$$$$
cHexCO
     RDKit          2D

  9  9  0  0  0  0  0  0  0  0999 V2000
    2.6667   -0.0000    0.0000 C   0  0  0  0  0  0  0  0  0  0  0  0
    1.9167   -1.2990    0.0000 C   0  0  0  0  0  0  0  0  0  0  0  0
    0.4167   -1.2990    0.0000 C   0  0  0  0  0  0  0  0  0  0  0  0
   -0.3333    0.0000    0.0000 C   0  0  0  0  0  0  0  0  0  0  0  0
    0.4167    1.2990    0.0000 C   0  0  0  0  0  0  0  0  0  0  0  0
    1.9167    1.2990    0.0000 C   0  0  0  0  0  0  0  0  0  0  0  0
   -1.8333    0.0000    0.0000 C   0  0  0  0  0  0  0  0  0  0  0  0
   -2.5833   -1.2990    0.0000 O   0  0  0  0  0  0  0  0  0  0  0  0
   -2.5833    1.2990    0.0000 O   0  0  0  0  0  0  0  0  0  0  0  0
  1  2  1  0
  2  3  1  0
  3  4  1  0
  4  5  1  0
  5  6  1  0
  4  7  1  0
  7  8  2  0
  7  9  1  0
  6  1  1  0
M  END
>  <rName>  (12) 
cHexCO

>  <PQ_SYMBOL>  (12) 
cHexCO

>  <FULL_NAME>  (12) 
Cyclohexanecarboxylic acid

>  <IUPAC_CONDENSED>  (12) 
cHexCO

>  <IUPAC>  (12) 
cyclohexanecarboxylic acid

>  <TYPE>  (12) 
N-term cap

>  <CLASS>  (12) 
n_cap

>  <ANALOG>  (12) 
X

>  <MOL_WT>  (12) 
128.171

>  <LOGP>  (12) 
1.6513

>  <TPSA>  (12) 
37.3

>  <POPULARITY>  (12) 
16.5

>  <PROTECTED>  (12) 
TRUE

>  <SMILES>  (12) 
C1CCC(CC1)C(=O)O

>  <INCHIKEY>  (12) 
NZNMSOFKMUBTKW-UHFFFAOYSA-N

$$$$
isobutyryl
     RDKit          2D

  6  5  0  0  0  0  0  0  0  0999 V2000
   -1.5000    1.2990    0.0000 C   0  0  0  0  0  0  0  0  0  0  0  0
   -0.7500    0.0000    0.0000 C   0  0  0  0  0  0  0  0  0  0  0  0
   -1.5000   -1.2990    0.0000 C   0  0  0  0  0  0  0  0  0  0  0  0
    0.7500   -0.0000    0.0000 C   0  0  0  0  0  0  0  0  0  0  0  0
    1.5000    1.2990    0.0000 O   0  0  0  0  0  0  0  0  0  0  0  0
    1.5000   -1.2990    0.0000 O   0  0  0  0  0  0  0  0  0  0  0  0
  1  2  1  0
  2  3  1  0
  2  4  1  0
  4  5  2  0
  4  6  1  0
M  END
>  <rName>  (13) 
isobutyryl

>  <PQ_SYMBOL>  (13) 
isobutyryl

>  <FULL_NAME>  (13) 
Isobutyric acid

>  <IUPAC_CONDENSED>  (13) 
isobutyryl

>  <IUPAC>  (13) 
2-methylpropanoic acid

>  <TYPE>  (13) 
N-term cap

>  <CLASS>  (13) 
n_cap

>  <ANALOG>  (13) 
X

>  <MOL_WT>  (13) 
88.10599999999998

>  <LOGP>  (13) 
0.727

>  <TPSA>  (13) 
37.3

>  <POPULARITY>  (13) 
17.2

>  <PROTECTED>  (13) 
TRUE

>  <SMILES>  (13) 
CC(C)C(=O)O

>  <INCHIKEY>  (13) 
KQNPFQTWMSNSAP-UHFFFAOYSA-N

$$$$
Bz
     RDKit          2D

  9  9  0  0  0  0  0  0  0  0999 V2000
    2.6667   -0.0000    0.0000 C   0  0  0  0  0  0  0  0  0  0  0  0
    1.9167   -1.2990    0.0000 C   0  0  0  0  0  0  0  0  0  0  0  0
    0.4167   -1.2990    0.0000 C   0  0  0  0  0  0  0  0  0  0  0  0
   -0.3333    0.0000    0.0000 C   0  0  0  0  0  0  0  0  0  0  0  0
    0.4167    1.2990    0.0000 C   0  0  0  0  0  0  0  0  0  0  0  0
    1.9167    1.2990    0.0000 C   0  0  0  0  0  0  0  0  0  0  0  0
   -1.8333    0.0000    0.0000 C   0  0  0  0  0  0  0  0  0  0  0  0
   -2.5833   -1.2990    0.0000 O   0  0  0  0  0  0  0  0  0  0  0  0
   -2.5833    1.2990    0.0000 O   0  0  0  0  0  0  0  0  0  0  0  0
  1  2  2  0
  2  3  1  0
  3  4  2  0
  4  5  1  0
  5  6  2  0
  4  7  1  0
  7  8  2  0
  7  9  1  0
  6  1  1  0
M  END
>  <rName>  (14) 
Bz

>  <PQ_SYMBOL>  (14) 
Bz

>  <FULL_NAME>  (14) 
Benzoic acid

>  <IUPAC_CONDENSED>  (14) 
Bz

>  <IUPAC>  (14) 
benzoic acid

>  <TYPE>  (14) 
N-term cap

>  <CLASS>  (14) 
n_cap

>  <ANALOG>  (14) 
X

>  <MOL_WT>  (14) 
122.12299999999996

>  <LOGP>  (14) 
1.3848

>  <TPSA>  (14) 
37.3

>  <POPULARITY>  (14) 
14.9

>  <PROTECTED>  (14) 
FALSE

>  <SMILES>  (14) 
c1ccc(cc1)C(=O)O

>  <INCHIKEY>  (14) 
WPYMKLBDIGXBTP-UHFFFAOYSA-N

$$$$
4-morpholinoacetyl-anilino
     RDKit          2D

 16 17  0  0  0  0  0  0  0  0999 V2000
   -5.9883   -0.3379    0.0000 N   0  0  0  0  0  0  0  0  0  0  0  0
   -4.5121   -0.0716    0.0000 C   0  0  0  0  0  0  0  0  0  0  0  0
   -4.0047    1.3400    0.0000 C   0  0  0  0  0  0  0  0  0  0  0  0
   -2.5285    1.6063    0.0000 C   0  0  0  0  0  0  0  0  0  0  0  0
   -1.5598    0.4611    0.0000 C   0  0  0  0  0  0  0  0  0  0  0  0
   -2.0672   -0.9505    0.0000 C   0  0  0  0  0  0  0  0  0  0  0  0
   -3.5434   -1.2168    0.0000 C   0  0  0  0  0  0  0  0  0  0  0  0
   -0.0836    0.7274    0.0000 C   0  0  0  0  0  0  0  0  0  0  0  0
    0.8851   -0.4178    0.0000 C   0  0  0  0  0  0  0  0  0  0  0  0
    0.3777   -1.8294    0.0000 O   0  0  0  0  0  0  0  0  0  0  0  0
    2.3613   -0.1515    0.0000 N   0  0  0  0  0  0  0  0  0  0  0  0
    3.3300   -1.2967    0.0000 C   0  0  0  0  0  0  0  0  0  0  0  0
    4.8062   -1.0303    0.0000 C   0  0  0  0  0  0  0  0  0  0  0  0
    5.3136    0.3812    0.0000 O   0  0  0  0  0  0  0  0  0  0  0  0
    4.3449    1.5264    0.0000 C   0  0  0  0  0  0  0  0  0  0  0  0
    2.8687    1.2601    0.0000 C   0  0  0  0  0  0  0  0  0  0  0  0
  1  2  1  0
  2  3  1  0
  3  4  2  0
  4  5  1  0
  5  6  2  0
  6  7  1  0
  5  8  1  0
  8  9  1  0
  9 10  2  0
  9 11  1  0
 11 12  1  0
 12 13  1  0
 13 14  1  0
 14 15  1  0
 15 16  1  0
 16 11  1  0
  7  2  2  0
M  END
>  <rName>  (15) 
4-morpholinoacetyl-anilino

>  <PQ_SYMBOL>  (15) 
4-morpholinoacetyl-anilino

>  <FULL_NAME>  (15) 
4-(2-morpholin-4-yl-2-oxoethyl)aniline

>  <IUPAC_CONDENSED>  (15) 
4-morpholinoacetyl-anilino

>  <IUPAC>  (15) 
2-(4-aminophenyl)-1-(morpholin-4-yl)ethan-1-one

>  <TYPE>  (15) 
C-term cap

>  <CLASS>  (15) 
c_cap

>  <ANALOG>  (15) 
X

>  <MOL_WT>  (15) 
220.27199999999993

>  <LOGP>  (15) 
0.6700999999999999

>  <TPSA>  (15) 
55.56

>  <POPULARITY>  (15) 
5.5

>  <PROTECTED>  (15) 
TRUE

>  <SMILES>  (15) 
Nc2ccc(cc2)CC(=O)N1CCOCC1

>  <INCHIKEY>  (15) 
QNKIGGHXVDYYKX-UHFFFAOYSA-N

$$$$
piperidino_4Ph_2CF3
     RDKit          2D

 16 17  0  0  0  0  0  0  0  0999 V2000
    3.9572    0.1072    0.0000 N   0  0  0  0  0  0  0  0  0  0  0  0
    3.0115   -1.0571    0.0000 C   0  0  0  0  0  0  0  0  0  0  0  0
    1.5303   -0.8203    0.0000 C   0  0  0  0  0  0  0  0  0  0  0  0
    0.9948    0.5809    0.0000 C   0  0  0  0  0  0  0  0  0  0  0  0
    1.9405    1.7452    0.0000 C   0  0  0  0  0  0  0  0  0  0  0  0
    3.4217    1.5084    0.0000 C   0  0  0  0  0  0  0  0  0  0  0  0
   -0.4863    0.8178    0.0000 C   0  0  0  0  0  0  0  0  0  0  0  0
   -1.0218    2.2189    0.0000 C   0  0  0  0  0  0  0  0  0  0  0  0
   -2.5030    2.4558    0.0000 C   0  0  0  0  0  0  0  0  0  0  0  0
   -3.4487    1.2915    0.0000 C   0  0  0  0  0  0  0  0  0  0  0  0
   -2.9132   -0.1097    0.0000 C   0  0  0  0  0  0  0  0  0  0  0  0
   -1.4321   -0.3465    0.0000 C   0  0  0  0  0  0  0  0  0  0  0  0
   -0.8966   -1.7477    0.0000 C   0  0  0  0  0  0  0  0  0  0  0  0
   -0.3611   -3.1489    0.0000 F   0  0  0  0  0  0  0  0  0  0  0  0
   -2.2978   -2.2832    0.0000 F   0  0  0  0  0  0  0  0  0  0  0  0
    0.5046   -1.2122    0.0000 F   0  0  0  0  0  0  0  0  0  0  0  0
  1  2  1  0
  2  3  1  0
  3  4  1  0
  4  5  1  0
  5  6  1  0
  4  7  1  0
  7  8  2  0
  8  9  1  0
  9 10  2  0
 10 11  1  0
 11 12  2  0
 12 13  1  0
 13 14  1  0
 13 15  1  0
 13 16  1  0
 12  7  1  0
  6  1  1  0
M  END
>  <rName>  (16) 
piperidino_4Ph_2CF3

>  <PQ_SYMBOL>  (16) 
piperidino_4Ph_2CF3

>  <FULL_NAME>  (16) 
4-(2-trifluoromethyl-phenyl)-piperidine

>  <IUPAC_CONDENSED>  (16) 
piperidino(4-Ph(2-CF3))

>  <IUPAC>  (16) 
4-(2-(trifluoromethyl)phenyl)piperidine

>  <TYPE>  (16) 
C-term cap

>  <CLASS>  (16) 
c_cap

>  <ANALOG>  (16) 
X

>  <MOL_WT>  (16) 
229.24499999999998

>  <LOGP>  (16) 
3.1724000000000014

>  <TPSA>  (16) 
12.03

>  <POPULARITY>  (16) 
7.6

>  <PROTECTED>  (16) 
TRUE

>  <SMILES>  (16) 
N2CCC(CC2)c1ccccc1C(F)(F)F

>  <INCHIKEY>  (16) 
KFWQOXAWVPAOKE-UHFFFAOYSA-N

$$$$
piperidino_4Ph_4OPh
     RDKit          2D

 19 21  0  0  0  0  0  0  0  0999 V2000
   -6.1519   -0.8640    0.0000 N   0  0  0  0  0  0  0  0  0  0  0  0
   -5.7785    0.5888    0.0000 C   0  0  0  0  0  0  0  0  0  0  0  0
   -4.3336    0.9917    0.0000 C   0  0  0  0  0  0  0  0  0  0  0  0
   -3.2622   -0.0581    0.0000 C   0  0  0  0  0  0  0  0  0  0  0  0
   -3.6357   -1.5108    0.0000 C   0  0  0  0  0  0  0  0  0  0  0  0
   -5.0805   -1.9138    0.0000 C   0  0  0  0  0  0  0  0  0  0  0  0
   -1.8174    0.3449    0.0000 C   0  0  0  0  0  0  0  0  0  0  0  0
   -0.7459   -0.7049    0.0000 C   0  0  0  0  0  0  0  0  0  0  0  0
    0.6989   -0.3019    0.0000 C   0  0  0  0  0  0  0  0  0  0  0  0
    1.0724    1.1508    0.0000 C   0  0  0  0  0  0  0  0  0  0  0  0
    0.0009    2.2006    0.0000 C   0  0  0  0  0  0  0  0  0  0  0  0
   -1.4439    1.7977    0.0000 C   0  0  0  0  0  0  0  0  0  0  0  0
    2.5172    1.5538    0.0000 O   0  0  0  0  0  0  0  0  0  0  0  0
    3.5886    0.5040    0.0000 C   0  0  0  0  0  0  0  0  0  0  0  0
    3.2152   -0.9488    0.0000 C   0  0  0  0  0  0  0  0  0  0  0  0
    4.2866   -1.9986    0.0000 C   0  0  0  0  0  0  0  0  0  0  0  0
    5.7314   -1.5956    0.0000 C   0  0  0  0  0  0  0  0  0  0  0  0
    6.1049   -0.1428    0.0000 C   0  0  0  0  0  0  0  0  0  0  0  0
    5.0335    0.9070    0.0000 C   0  0  0  0  0  0  0  0  0  0  0  0
  1  2  1  0
  2  3  1  0
  3  4  1  0
  4  5  1  0
  5  6  1  0
  4  7  1  0
  7  8  1  0
  8  9  2  0
  9 10  1  0
 10 11  2  0
 11 12  1  0
 10 13  1  0
 13 14  1  0
 14 15  2  0
 15 16  1  0
 16 17  2  0
 17 18  1  0
 18 19  2  0
 19 14  1  0
 12  7  2  0
  6  1  1  0
M  END
>  <rName>  (17) 
piperidino_4Ph_4OPh

>  <PQ_SYMBOL>  (17) 
piperidino_4Ph_4OPh

>  <FULL_NAME>  (17) 
4-(4-Phenoxyphenyl)-piperidine

>  <IUPAC_CONDENSED>  (17) 
piperidino(4-Ph(4-OPh))

>  <IUPAC>  (17) 
4-(4-phenoxyphenyl)piperidine

>  <TYPE>  (17) 
C-term cap

>  <CLASS>  (17) 
c_cap

>  <ANALOG>  (17) 
X

>  <MOL_WT>  (17) 
253.34500000000003

>  <LOGP>  (17) 
3.9459000000000026

>  <TPSA>  (17) 
21.259999999999998

>  <POPULARITY>  (17) 
5.4

>  <PROTECTED>  (17) 
TRUE

>  <SMILES>  (17) 
N3CCC(CC3)c2ccc(cc2)Oc1ccccc1

>  <INCHIKEY>  (17) 
MTMOLUVQNWNTBV-UHFFFAOYSA-N

$$$$
Ms-spiroindoline-piperidine
     RDKit          2D

 18 20  0  0  0  0  0  0  0  0999 V2000
   -4.0262   -1.1901    0.0000 N   0  0  0  0  0  0  0  0  0  0  0  0
   -3.5998    0.2480    0.0000 C   0  0  0  0  0  0  0  0  0  0  0  0
   -2.1412    0.5978    0.0000 C   0  0  0  0  0  0  0  0  0  0  0  0
   -1.1089   -0.4905    0.0000 C   0  0  0  0  0  0  0  0  0  0  0  0
   -1.5353   -1.9286    0.0000 C   0  0  0  0  0  0  0  0  0  0  0  0
   -2.9940   -2.2784    0.0000 C   0  0  0  0  0  0  0  0  0  0  0  0
   -0.5345    0.8951    0.0000 C   0  0  0  0  0  0  0  0  0  0  0  0
   -1.1799    2.2492    0.0000 C   0  0  0  0  0  0  0  0  0  0  0  0
   -0.3300    3.4852    0.0000 C   0  0  0  0  0  0  0  0  0  0  0  0
    1.1653    3.3671    0.0000 C   0  0  0  0  0  0  0  0  0  0  0  0
    1.8108    2.0130    0.0000 C   0  0  0  0  0  0  0  0  0  0  0  0
    0.9608    0.7771    0.0000 C   0  0  0  0  0  0  0  0  0  0  0  0
    1.3106   -0.6816    0.0000 N   0  0  0  0  0  0  0  0  0  0  0  0
    0.0314   -1.4650    0.0000 C   0  0  0  0  0  0  0  0  0  0  0  0
    2.6963   -1.2560    0.0000 S   0  0  0  0  0  0  0  0  0  0  0  0
    3.2707    0.1297    0.0000 O   0  0  0  0  0  0  0  0  0  0  0  0
    2.1219   -2.6416    0.0000 O   0  0  0  0  0  0  0  0  0  0  0  0
    4.0819   -1.8304    0.0000 C   0  0  0  0  0  0  0  0  0  0  0  0
  1  2  1  0
  2  3  1  0
  3  4  1  0
  4  5  1  0
  5  6  1  0
  4  7  1  0
  7  8  2  0
  8  9  1  0
  9 10  2  0
 10 11  1  0
 11 12  2  0
 12 13  1  0
 13 14  1  0
 13 15  1  0
 15 16  2  0
 15 17  2  0
 15 18  1  0
 12  7  1  0
 14  4  1  0
  6  1  1  0
M  END
>  <rName>  (18) 
Ms-spiroindoline-piperidine

>  <PQ_SYMBOL>  (18) 
Ms-spiroindoline-piperidine

>  <FULL_NAME>  (18) 
1-(Methylsulfonyl)spiro[indoline-3,4'-piperidine]

>  <IUPAC_CONDENSED>  (18) 
Ms-spiro[indoline-piperidine]

>  <IUPAC>  (18) 
1-(methylsulfonyl)spiro[indoline-3,4'-piperidine]

>  <TYPE>  (18) 
C-term cap

>  <CLASS>  (18) 
c_cap

>  <ANALOG>  (18) 
X

>  <MOL_WT>  (18) 
266.366

>  <LOGP>  (18) 
1.0874

>  <TPSA>  (18) 
49.410000000000004

>  <POPULARITY>  (18) 
7.8

>  <PROTECTED>  (18) 
TRUE

>  <SMILES>  (18) 
N3CCC2(CC3)c1ccccc1N(C2)S(=O)(=O)C

>  <INCHIKEY>  (18) 
NSECJXCOETXUHS-UHFFFAOYSA-N

$$$$
NHBn
     RDKit          2D

  8  8  0  0  0  0  0  0  0  0999 V2000
   -3.0851    0.4695    0.0000 N   0  0  0  0  0  0  0  0  0  0  0  0
   -2.0677   -0.6327    0.0000 C   0  0  0  0  0  0  0  0  0  0  0  0
   -0.6045   -0.3028    0.0000 C   0  0  0  0  0  0  0  0  0  0  0  0
   -0.1586    1.1294    0.0000 C   0  0  0  0  0  0  0  0  0  0  0  0
    1.3047    1.4594    0.0000 C   0  0  0  0  0  0  0  0  0  0  0  0
    2.3221    0.3572    0.0000 C   0  0  0  0  0  0  0  0  0  0  0  0
    1.8762   -1.0750    0.0000 C   0  0  0  0  0  0  0  0  0  0  0  0
    0.4129   -1.4050    0.0000 C   0  0  0  0  0  0  0  0  0  0  0  0
  1  2  1  0
  2  3  1  0
  3  4  2  0
  4  5  1  0
  5  6  2  0
  6  7  1  0
  7  8  2  0
  8  3  1  0
M  END
>  <rName>  (19) 
NHBn

>  <PQ_SYMBOL>  (19) 
NHBn

>  <FULL_NAME>  (19) 
Benzylamine

>  <IUPAC_CONDENSED>  (19) 
NHBn

>  <IUPAC>  (19) 
1-phenylmethanamine

>  <TYPE>  (19) 
C-term cap

>  <CLASS>  (19) 
c_cap

>  <ANALOG>  (19) 
X

>  <MOL_WT>  (19) 
107.15599999999996

>  <LOGP>  (19) 
1.1453

>  <TPSA>  (19) 
26.02

>  <POPULARITY>  (19) 
14.8

>  <PROTECTED>  (19) 
FALSE

>  <SMILES>  (19) 
NCc1ccccc1

>  <INCHIKEY>  (19) 
WGQKYBSKWIADBV-UHFFFAOYSA-N

$$$$
NHBn_2NO2
     RDKit          2D

 11 11  0  0  0  0  0  0  0  0999 V2000
   -1.0063   -3.1763    0.0000 N   0  0  0  0  0  0  0  0  0  0  0  0
   -0.0316   -2.0361    0.0000 C   0  0  0  0  0  0  0  0  0  0  0  0
   -0.5316   -0.6219    0.0000 C   0  0  0  0  0  0  0  0  0  0  0  0
   -2.0064   -0.3479    0.0000 C   0  0  0  0  0  0  0  0  0  0  0  0
   -2.5065    1.0663    0.0000 C   0  0  0  0  0  0  0  0  0  0  0  0
   -1.5318    2.2065    0.0000 C   0  0  0  0  0  0  0  0  0  0  0  0
   -0.0570    1.9324    0.0000 C   0  0  0  0  0  0  0  0  0  0  0  0
    0.4430    0.5183    0.0000 C   0  0  0  0  0  0  0  0  0  0  0  0
    1.9178    0.2442    0.0000 N   0  0  0  0  0  0  0  0  0  0  0  0
    2.4179   -1.1699    0.0000 O   0  0  0  0  0  0  0  0  0  0  0  0
    2.8925    1.3844    0.0000 O   0  0  0  0  0  0  0  0  0  0  0  0
  1  2  1  0
  2  3  1  0
  3  4  2  0
  4  5  1  0
  5  6  2  0
  6  7  1  0
  7  8  2  0
  8  9  1  0
  9 10  2  0
  9 11  1  0
  8  3  1  0
M  CHG  2   9   1  11  -1
M  END
>  <rName>  (20) 
NHBn_2NO2

>  <PQ_SYMBOL>  (20) 
NHBn_2NO2

>  <FULL_NAME>  (20) 
(2-Nitrophenyl)methanamine

>  <IUPAC_CONDENSED>  (20) 
NHBn(2-NO2)

>  <IUPAC>  (20) 
1-(2-nitrophenyl)methanamine

>  <TYPE>  (20) 
C-term cap

>  <CLASS>  (20) 
c_cap

>  <ANALOG>  (20) 
X

>  <MOL_WT>  (20) 
152.15299999999996

>  <LOGP>  (20) 
1.0535

>  <TPSA>  (20) 
69.16

>  <POPULARITY>  (20) 
9.3

>  <PROTECTED>  (20) 
TRUE

>  <SMILES>  (20) 
NCc1ccccc1[N+](=O)[O-]

>  <INCHIKEY>  (20) 
PYYRNLDFMZVKCV-UHFFFAOYSA-N

$$$$
NHBn_2Ph
     RDKit          2D

 14 15  0  0  0  0  0  0  0  0999 V2000
   -0.7500   -2.2269    0.0000 N   0  0  0  0  0  0  0  0  0  0  0  0
    0.7500   -2.2269    0.0000 C   0  0  0  0  0  0  0  0  0  0  0  0
    1.5000   -0.9279    0.0000 C   0  0  0  0  0  0  0  0  0  0  0  0
    0.7500    0.3712    0.0000 C   0  0  0  0  0  0  0  0  0  0  0  0
    1.5000    1.6702    0.0000 C   0  0  0  0  0  0  0  0  0  0  0  0
    3.0000    1.6702    0.0000 C   0  0  0  0  0  0  0  0  0  0  0  0
    3.7500    0.3712    0.0000 C   0  0  0  0  0  0  0  0  0  0  0  0
    3.0000   -0.9279    0.0000 C   0  0  0  0  0  0  0  0  0  0  0  0
   -0.7500    0.3712    0.0000 C   0  0  0  0  0  0  0  0  0  0  0  0
   -1.5000    1.6702    0.0000 C   0  0  0  0  0  0  0  0  0  0  0  0
   -3.0000    1.6702    0.0000 C   0  0  0  0  0  0  0  0  0  0  0  0
   -3.7500    0.3712    0.0000 C   0  0  0  0  0  0  0  0  0  0  0  0
   -3.0000   -0.9279    0.0000 C   0  0  0  0  0  0  0  0  0  0  0  0
   -1.5000   -0.9279    0.0000 C   0  0  0  0  0  0  0  0  0  0  0  0
  1  2  1  0
  2  3  1  0
  3  4  1  0
  4  5  2  0
  5  6  1  0
  6  7  2  0
  7  8  1  0
  4  9  1  0
  9 10  2  0
 10 11  1  0
 11 12  2  0
 12 13  1  0
 13 14  2  0
 14  9  1  0
  8  3  2  0
M  END
>  <rName>  (21) 
NHBn_2Ph

>  <PQ_SYMBOL>  (21) 
NHBn_2Ph

>  <FULL_NAME>  (21) 
1-Biphenyl-2-Ylmethanamine

>  <IUPAC_CONDENSED>  (21) 
NHBn(2-Ph)

>  <IUPAC>  (21) 
1-(2-phenylphenyl)methanamine

>  <TYPE>  (21) 
C-term cap

>  <CLASS>  (21) 
c_cap

>  <ANALOG>  (21) 
X

>  <MOL_WT>  (21) 
183.254

>  <LOGP>  (21) 
2.8123000000000014

>  <TPSA>  (21) 
26.02

>  <POPULARITY>  (21) 
13

>  <PROTECTED>  (21) 
TRUE

>  <SMILES>  (21) 
NCc2c(cccc2)c1ccccc1

>  <INCHIKEY>  (21) 
YHXKXVFQHWJYOD-UHFFFAOYSA-N

$$$$
NHBn_3Ph
     RDKit          2D

 14 15  0  0  0  0  0  0  0  0999 V2000
    3.3370   -2.6440    0.0000 N   0  0  0  0  0  0  0  0  0  0  0  0
    3.7163   -1.1927    0.0000 C   0  0  0  0  0  0  0  0  0  0  0  0
    2.6491   -0.1386    0.0000 C   0  0  0  0  0  0  0  0  0  0  0  0
    1.2026   -0.5358    0.0000 C   0  0  0  0  0  0  0  0  0  0  0  0
    0.1355    0.5183    0.0000 C   0  0  0  0  0  0  0  0  0  0  0  0
    0.5147    1.9696    0.0000 C   0  0  0  0  0  0  0  0  0  0  0  0
    1.9612    2.3667    0.0000 C   0  0  0  0  0  0  0  0  0  0  0  0
    3.0284    1.3126    0.0000 C   0  0  0  0  0  0  0  0  0  0  0  0
   -1.3110    0.1212    0.0000 C   0  0  0  0  0  0  0  0  0  0  0  0
   -2.3782    1.1753    0.0000 C   0  0  0  0  0  0  0  0  0  0  0  0
   -3.8247    0.7781    0.0000 C   0  0  0  0  0  0  0  0  0  0  0  0
   -4.2039   -0.6732    0.0000 C   0  0  0  0  0  0  0  0  0  0  0  0
   -3.1368   -1.7273    0.0000 C   0  0  0  0  0  0  0  0  0  0  0  0
   -1.6903   -1.3301    0.0000 C   0  0  0  0  0  0  0  0  0  0  0  0
  1  2  1  0
  2  3  1  0
  3  4  2  0
  4  5  1  0
  5  6  2  0
  6  7  1  0
  7  8  2  0
  5  9  1  0
  9 10  2  0
 10 11  1  0
 11 12  2  0
 12 13  1  0
 13 14  2  0
 14  9  1  0
  8  3  1  0
M  END
>  <rName>  (22) 
NHBn_3Ph

>  <PQ_SYMBOL>  (22) 
NHBn_3Ph

>  <FULL_NAME>  (22) 
3-Phenylbenzylamine

>  <IUPAC_CONDENSED>  (22) 
NHBn(3-Ph)

>  <IUPAC>  (22) 
1-(3-phenylphenyl)methanamine

>  <TYPE>  (22) 
C-term cap

>  <CLASS>  (22) 
c_cap

>  <ANALOG>  (22) 
X

>  <MOL_WT>  (22) 
183.254

>  <LOGP>  (22) 
2.8123000000000014

>  <TPSA>  (22) 
26.02

>  <POPULARITY>  (22) 
12.8

>  <PROTECTED>  (22) 
TRUE

>  <SMILES>  (22) 
NCc2cc(ccc2)c1ccccc1

>  <INCHIKEY>  (22) 
WKHABRRJMGVELW-UHFFFAOYSA-N

$$$$
NHnaphth-1-ylmethyl
     RDKit          2D

 12 13  0  0  0  0  0  0  0  0999 V2000
   -3.6663   -1.3735    0.0000 N   0  0  0  0  0  0  0  0  0  0  0  0
   -2.1699   -1.4772    0.0000 C   0  0  0  0  0  0  0  0  0  0  0  0
   -1.3318   -0.2332    0.0000 C   0  0  0  0  0  0  0  0  0  0  0  0
    0.1646   -0.3370    0.0000 C   0  0  0  0  0  0  0  0  0  0  0  0
    0.8229   -1.6848    0.0000 C   0  0  0  0  0  0  0  0  0  0  0  0
    2.3193   -1.7885    0.0000 C   0  0  0  0  0  0  0  0  0  0  0  0
    3.1574   -0.5445    0.0000 C   0  0  0  0  0  0  0  0  0  0  0  0
    2.4991    0.8033    0.0000 C   0  0  0  0  0  0  0  0  0  0  0  0
    1.0027    0.9071    0.0000 C   0  0  0  0  0  0  0  0  0  0  0  0
    0.3443    2.2549    0.0000 C   0  0  0  0  0  0  0  0  0  0  0  0
   -1.1521    2.3587    0.0000 C   0  0  0  0  0  0  0  0  0  0  0  0
   -1.9902    1.1146    0.0000 C   0  0  0  0  0  0  0  0  0  0  0  0
  1  2  1  0
  2  3  1  0
  3  4  1  0
  4  5  2  0
  5  6  1  0
  6  7  2  0
  7  8  1  0
  8  9  2  0
  9 10  1  0
 10 11  2  0
 11 12  1  0
  9  4  1  0
 12  3  2  0
M  END
>  <rName>  (23) 
NHnaphth-1-ylmethyl

>  <PQ_SYMBOL>  (23) 
NHnaphth-1-ylmethyl

>  <FULL_NAME>  (23) 
1-Naphthalenemethylamine

>  <IUPAC_CONDENSED>  (23) 
NHnaphth-1-ylmethyl

>  <IUPAC>  (23) 
1-(naphthalen-1-yl)methanamine

>  <TYPE>  (23) 
C-term cap

>  <CLASS>  (23) 
c_cap

>  <ANALOG>  (23) 
X

>  <MOL_WT>  (23) 
157.21599999999998

>  <LOGP>  (23) 
2.2985000000000007

>  <TPSA>  (23) 
26.02

>  <POPULARITY>  (23) 
13.9

>  <PROTECTED>  (23) 
TRUE

>  <SMILES>  (23) 
NCc2c1ccccc1ccc2

>  <INCHIKEY>  (23) 
NVSYANRBXPURRQ-UHFFFAOYSA-N

$$$$
iBu2N
     RDKit          2D

  9  8  0  0  0  0  0  0  0  0999 V2000
    0.0000    0.0000    0.0000 N   0  0  0  0  0  0  0  0  0  0  0  0
   -1.2990    0.7500    0.0000 C   0  0  0  0  0  0  0  0  0  0  0  0
   -2.5981    0.0000    0.0000 C   0  0  0  0  0  0  0  0  0  0  0  0
   -3.8971    0.7500    0.0000 C   0  0  0  0  0  0  0  0  0  0  0  0
   -2.5981   -1.5000    0.0000 C   0  0  0  0  0  0  0  0  0  0  0  0
    1.2990    0.7500    0.0000 C   0  0  0  0  0  0  0  0  0  0  0  0
    2.5981    0.0000    0.0000 C   0  0  0  0  0  0  0  0  0  0  0  0
    3.8971    0.7500    0.0000 C   0  0  0  0  0  0  0  0  0  0  0  0
    2.5981   -1.5000    0.0000 C   0  0  0  0  0  0  0  0  0  0  0  0
  1  2  1  0
  2  3  1  0
  3  4  1  0
  3  5  1  0
  1  6  1  0
  6  7  1  0
  7  8  1  0
  7  9  1  0
M  END
>  <rName>  (24) 
iBu2N

>  <PQ_SYMBOL>  (24) 
iBu2N

>  <FULL_NAME>  (24) 
Diisobutylamine

>  <IUPAC_CONDENSED>  (24) 
N(iBu2)

>  <IUPAC>  (24) 
2-methyl-N-(2-methylpropyl)propan-1-amine

>  <TYPE>  (24) 
C-term cap

>  <CLASS>  (24) 
c_cap

>  <ANALOG>  (24) 
X

>  <MOL_WT>  (24) 
129.24699999999999

>  <LOGP>  (24) 
1.888

>  <TPSA>  (24) 
12.03

>  <POPULARITY>  (24) 
13.8

>  <PROTECTED>  (24) 
TRUE

>  <SMILES>  (24) 
N(CC(C)C)CC(C)C

>  <INCHIKEY>  (24) 
NJBCRXCAPCODGX-UHFFFAOYSA-N

$$$$
NHBn_2OPr
     RDKit          2D

 12 12  0  0  0  0  0  0  0  0999 V2000
   -0.0649   -2.8304    0.0000 N   0  0  0  0  0  0  0  0  0  0  0  0
    1.3249   -2.2661    0.0000 C   0  0  0  0  0  0  0  0  0  0  0  0
    1.5311   -0.7804    0.0000 C   0  0  0  0  0  0  0  0  0  0  0  0
    0.3475    0.1411    0.0000 C   0  0  0  0  0  0  0  0  0  0  0  0
    0.5536    1.6268    0.0000 C   0  0  0  0  0  0  0  0  0  0  0  0
    1.9435    2.1911    0.0000 C   0  0  0  0  0  0  0  0  0  0  0  0
    3.1271    1.2697    0.0000 C   0  0  0  0  0  0  0  0  0  0  0  0
    2.9209   -0.2161    0.0000 C   0  0  0  0  0  0  0  0  0  0  0  0
   -1.0424   -0.4232    0.0000 O   0  0  0  0  0  0  0  0  0  0  0  0
   -2.2260    0.4982    0.0000 C   0  0  0  0  0  0  0  0  0  0  0  0
   -3.6158   -0.0661    0.0000 C   0  0  0  0  0  0  0  0  0  0  0  0
   -4.7994    0.8554    0.0000 C   0  0  0  0  0  0  0  0  0  0  0  0
  1  2  1  0
  2  3  1  0
  3  4  1  0
  4  5  2  0
  5  6  1  0
  6  7  2  0
  7  8  1  0
  4  9  1  0
  9 10  1  0
 10 11  1  0
 11 12  1  0
  8  3  2  0
M  END
>  <rName>  (25) 
NHBn_2OPr

>  <PQ_SYMBOL>  (25) 
NHBn_2OPr

>  <FULL_NAME>  (25) 
(2-Propoxyphenyl)methanamine

>  <IUPAC_CONDENSED>  (25) 
NHBn(2-OPr)

>  <IUPAC>  (25) 
1-(2-propoxyphenyl)methanamine

>  <TYPE>  (25) 
C-term cap

>  <CLASS>  (25) 
c_cap

>  <ANALOG>  (25) 
X

>  <MOL_WT>  (25) 
165.23599999999993

>  <LOGP>  (25) 
1.9341

>  <TPSA>  (25) 
35.25

>  <POPULARITY>  (25) 
13.3

>  <PROTECTED>  (25) 
TRUE

>  <SMILES>  (25) 
NCc1c(cccc1)OCCC

>  <INCHIKEY>  (25) 
OGRKHGGNPBWHSN-UHFFFAOYSA-N

$$$$
NHBn_2OsBu
     RDKit          2D

 13 13  0  0  0  0  0  0  0  0999 V2000
    0.9220   -3.0025    0.0000 N   0  0  0  0  0  0  0  0  0  0  0  0
    2.0751   -2.0432    0.0000 C   0  0  0  0  0  0  0  0  0  0  0  0
    1.8209   -0.5649    0.0000 C   0  0  0  0  0  0  0  0  0  0  0  0
    0.4135   -0.0460    0.0000 C   0  0  0  0  0  0  0  0  0  0  0  0
    0.1592    1.4323    0.0000 C   0  0  0  0  0  0  0  0  0  0  0  0
    1.3123    2.3917    0.0000 C   0  0  0  0  0  0  0  0  0  0  0  0
    2.7197    1.8728    0.0000 C   0  0  0  0  0  0  0  0  0  0  0  0
    2.9740    0.3945    0.0000 C   0  0  0  0  0  0  0  0  0  0  0  0
   -0.7396   -1.0053    0.0000 O   0  0  0  0  0  0  0  0  0  0  0  0
   -2.1470   -0.4864    0.0000 C   0  0  0  0  0  0  0  0  0  0  0  0
   -3.3001   -1.4457    0.0000 C   0  0  0  0  0  0  0  0  0  0  0  0
   -2.4013    0.9919    0.0000 C   0  0  0  0  0  0  0  0  0  0  0  0
   -3.8087    1.5108    0.0000 C   0  0  0  0  0  0  0  0  0  0  0  0
  1  2  1  0
  2  3  1  0
  3  4  1  0
  4  5  2  0
  5  6  1  0
  6  7  2  0
  7  8  1  0
  4  9  1  0
  9 10  1  0
 10 11  1  0
 10 12  1  0
 12 13  1  0
  8  3  2  0
M  END
>  <rName>  (26) 
NHBn_2OsBu

>  <PQ_SYMBOL>  (26) 
NHBn_2OsBu

>  <FULL_NAME>  (26) 
2-Sec-butoxybenzyl)amine

>  <IUPAC_CONDENSED>  (26) 
NHBn(2-OsBu)

>  <IUPAC>  (26) 
1-(2-(sec-butoxy)phenyl)methanamine

>  <TYPE>  (26) 
C-term cap

>  <CLASS>  (26) 
c_cap

>  <ANALOG>  (26) 
X

>  <MOL_WT>  (26) 
179.26299999999995

>  <LOGP>  (26) 
2.3226000000000004

>  <TPSA>  (26) 
35.25

>  <POPULARITY>  (26) 
11

>  <PROTECTED>  (26) 
TRUE

>  <SMILES>  (26) 
NCc1c(cccc1)OC(C)CC

>  <INCHIKEY>  (26) 
XHKNZQJAMBTBKQ-UHFFFAOYSA-N

$$$$
piperidino_4NHAc_4Ph
     RDKit          2D

 16 17  0  0  0  0  0  0  0  0999 V2000
    2.4995   -2.4831    0.0000 N   0  0  0  0  0  0  0  0  0  0  0  0
    1.0400   -2.8296    0.0000 C   0  0  0  0  0  0  0  0  0  0  0  0
    0.0103   -1.7389    0.0000 C   0  0  0  0  0  0  0  0  0  0  0  0
    0.4400   -0.3017    0.0000 C   0  0  0  0  0  0  0  0  0  0  0  0
    1.8994    0.0447    0.0000 C   0  0  0  0  0  0  0  0  0  0  0  0
    2.9292   -1.0460    0.0000 C   0  0  0  0  0  0  0  0  0  0  0  0
    0.3522    1.1957    0.0000 N   0  0  0  0  0  0  0  0  0  0  0  0
    1.6052    2.0204    0.0000 C   0  0  0  0  0  0  0  0  0  0  0  0
    2.9459    1.3477    0.0000 O   0  0  0  0  0  0  0  0  0  0  0  0
    1.5175    3.5178    0.0000 C   0  0  0  0  0  0  0  0  0  0  0  0
   -1.0499   -0.1281    0.0000 C   0  0  0  0  0  0  0  0  0  0  0  0
   -1.6445    1.2490    0.0000 C   0  0  0  0  0  0  0  0  0  0  0  0
   -3.1345    1.4226    0.0000 C   0  0  0  0  0  0  0  0  0  0  0  0
   -4.0298    0.2191    0.0000 C   0  0  0  0  0  0  0  0  0  0  0  0
   -3.4352   -1.1580    0.0000 C   0  0  0  0  0  0  0  0  0  0  0  0
   -1.9453   -1.3316    0.0000 C   0  0  0  0  0  0  0  0  0  0  0  0
  1  2  1  0
  2  3  1  0
  3  4  1  0
  4  5  1  0
  5  6  1  0
  4  7  1  0
  7  8  1  0
  8  9  2  0
  8 10  1  0
  4 11  1  0
 11 12  2  0
 12 13  1  0
 13 14  2  0
 14 15  1  0
 15 16  2  0
 16 11  1  0
  6  1  1  0
M  END
>  <rName>  (27) 
piperidino_4NHAc_4Ph

>  <PQ_SYMBOL>  (27) 
piperidino_4NHAc_4Ph

>  <FULL_NAME>  (27) 
N-(4-Phenylpiperidin-4-yl)acetamide

>  <IUPAC_CONDENSED>  (27) 
piperidino(4-NHAc,4-Ph)

>  <IUPAC>  (27) 
N-(4-phenylpiperidin-4-yl)acetamide

>  <TYPE>  (27) 
C-term cap

>  <CLASS>  (27) 
c_cap

>  <ANALOG>  (27) 
X

>  <MOL_WT>  (27) 
218.3

>  <LOGP>  (27) 
1.4013999999999998

>  <TPSA>  (27) 
41.129999999999995

>  <POPULARITY>  (27) 
8.2

>  <PROTECTED>  (27) 
TRUE

>  <SMILES>  (27) 
N2CCC(CC2)(NC(=O)C)c1ccccc1

>  <INCHIKEY>  (27) 
RSWVTFKEQVIXPQ-UHFFFAOYSA-N

$$$$
piperazino_4Bn
     RDKit          2D

 13 14  0  0  0  0  0  0  0  0999 V2000
   -3.8971   -0.8654    0.0000 N   0  0  0  0  0  0  0  0  0  0  0  0
   -3.8971    0.6346    0.0000 C   0  0  0  0  0  0  0  0  0  0  0  0
   -2.5981    1.3846    0.0000 C   0  0  0  0  0  0  0  0  0  0  0  0
   -1.2990    0.6346    0.0000 N   0  0  0  0  0  0  0  0  0  0  0  0
   -1.2990   -0.8654    0.0000 C   0  0  0  0  0  0  0  0  0  0  0  0
   -2.5981   -1.6154    0.0000 C   0  0  0  0  0  0  0  0  0  0  0  0
   -0.0000    1.3846    0.0000 C   0  0  0  0  0  0  0  0  0  0  0  0
    1.2990    0.6346    0.0000 C   0  0  0  0  0  0  0  0  0  0  0  0
    1.2990   -0.8654    0.0000 C   0  0  0  0  0  0  0  0  0  0  0  0
    2.5981   -1.6154    0.0000 C   0  0  0  0  0  0  0  0  0  0  0  0
    3.8971   -0.8654    0.0000 C   0  0  0  0  0  0  0  0  0  0  0  0
    3.8971    0.6346    0.0000 C   0  0  0  0  0  0  0  0  0  0  0  0
    2.5981    1.3846    0.0000 C   0  0  0  0  0  0  0  0  0  0  0  0
  1  2  1  0
  2  3  1  0
  3  4  1  0
  4  5  1  0
  5  6  1  0
  4  7  1  0
  7  8  1  0
  8  9  2  0
  9 10  1  0
 10 11  2  0
 11 12  1  0
 12 13  2  0
 13  8  1  0
  6  1  1  0
M  END
>  <rName>  (28) 
piperazino_4Bn

>  <PQ_SYMBOL>  (28) 
piperazino_4Bn

>  <FULL_NAME>  (28) 
1-Benzylpiperazine

>  <IUPAC_CONDENSED>  (28) 
piperazino(4-Bn)

>  <IUPAC>  (28) 
1-benzylpiperazine

>  <TYPE>  (28) 
C-term cap

>  <CLASS>  (28) 
c_cap

>  <ANALOG>  (28) 
X

>  <MOL_WT>  (28) 
176.263

>  <LOGP>  (28) 
1.0917999999999994

>  <TPSA>  (28) 
15.27

>  <POPULARITY>  (28) 
16.2

>  <PROTECTED>  (28) 
TRUE

>  <SMILES>  (28) 
N2CCN(CC2)Cc1ccccc1

>  <INCHIKEY>  (28) 
IQXXEPZFOOTTBA-UHFFFAOYSA-N

$$$$
bAla-NHMe
     RDKit          2D

 13 13  0  0  0  0  0  0  0  0999 V2000
   -5.9021    1.0545    0.0000 N   0  0  0  0  0  0  0  0  0  0  0  0
   -4.7552    0.0877    0.0000 C   0  0  0  0  0  0  0  0  0  0  0  0
   -3.3445    0.5976    0.0000 C   0  0  0  0  0  0  0  0  0  0  0  0
   -2.1976   -0.3692    0.0000 C   0  0  0  0  0  0  0  0  0  0  0  0
   -2.4615   -1.8458    0.0000 O   0  0  0  0  0  0  0  0  0  0  0  0
   -0.7869    0.1406    0.0000 N   0  0  0  0  0  0  0  0  0  0  0  0
    0.3599   -0.8262    0.0000 C   0  0  0  0  0  0  0  0  0  0  0  0
    1.7706   -0.3164    0.0000 C   0  0  0  0  0  0  0  0  0  0  0  0
    2.0345    1.1603    0.0000 C   0  0  0  0  0  0  0  0  0  0  0  0
    3.4452    1.6701    0.0000 C   0  0  0  0  0  0  0  0  0  0  0  0
    4.5920    0.7033    0.0000 C   0  0  0  0  0  0  0  0  0  0  0  0
    4.3282   -0.7733    0.0000 N   0  0  0  0  0  0  0  0  0  0  0  0
    2.9175   -1.2831    0.0000 C   0  0  0  0  0  0  0  0  0  0  0  0
  1  2  1  0
  2  3  1  0
  3  4  1  0
  4  5  2  0
  4  6  1  0
  6  7  1  0
  7  8  1  0
  8  9  2  0
  9 10  1  0
 10 11  2  0
 11 12  1  0
 12 13  2  0
 13  8  1  0
M  END
>  <rName>  (29) 
bAla-NHMe

>  <PQ_SYMBOL>  (29) 
bAla-NHMe

>  <FULL_NAME>  (29) 
3-amino-N-(pyridin-3-ylmethyl)propanamide

>  <IUPAC_CONDENSED>  (29) 
bAla-NHMe

>  <IUPAC>  (29) 
3-amino-N-((pyridin-3-yl)methyl)propanamide

>  <TYPE>  (29) 
C-term cap

>  <CLASS>  (29) 
c_cap

>  <ANALOG>  (29) 
X

>  <MOL_WT>  (29) 
179.223

>  <LOGP>  (29) 
0.04659999999999975

>  <TPSA>  (29) 
68.01

>  <POPULARITY>  (29) 
8.5

>  <PROTECTED>  (29) 
TRUE

>  <SMILES>  (29) 
NCCC(=O)NCc1cccnc1

>  <INCHIKEY>  (29) 
IFUCMVSFAKXATJ-UHFFFAOYSA-N

$$$$
spiroindene-piperidine
     RDKit          2D

 14 16  0  0  0  0  0  0  0  0999 V2000
    3.3489   -1.1308    0.0000 N   0  0  0  0  0  0  0  0  0  0  0  0
    2.0256   -1.8372    0.0000 C   0  0  0  0  0  0  0  0  0  0  0  0
    0.7522   -1.0444    0.0000 C   0  0  0  0  0  0  0  0  0  0  0  0
    0.8021    0.4548    0.0000 C   0  0  0  0  0  0  0  0  0  0  0  0
    2.1254    1.1611    0.0000 C   0  0  0  0  0  0  0  0  0  0  0  0
    3.3988    0.3684    0.0000 C   0  0  0  0  0  0  0  0  0  0  0  0
   -0.5877   -0.1095    0.0000 C   0  0  0  0  0  0  0  0  0  0  0  0
   -1.0984   -1.5198    0.0000 C   0  0  0  0  0  0  0  0  0  0  0  0
   -2.5752   -1.7828    0.0000 C   0  0  0  0  0  0  0  0  0  0  0  0
   -3.5413   -0.6353    0.0000 C   0  0  0  0  0  0  0  0  0  0  0  0
   -3.0306    0.7751    0.0000 C   0  0  0  0  0  0  0  0  0  0  0  0
   -1.5538    1.0380    0.0000 C   0  0  0  0  0  0  0  0  0  0  0  0
   -0.7610    2.3114    0.0000 C   0  0  0  0  0  0  0  0  0  0  0  0
    0.6950    1.9509    0.0000 C   0  0  0  0  0  0  0  0  0  0  0  0
  1  2  1  0
  2  3  1  0
  3  4  1  0
  4  5  1  0
  5  6  1  0
  4  7  1  0
  7  8  2  0
  8  9  1  0
  9 10  2  0
 10 11  1  0
 11 12  2  0
 12 13  1  0
 13 14  1  0
 12  7  1  0
 14  4  1  0
  6  1  1  0
M  END
>  <rName>  (30) 
spiroindene-piperidine

>  <PQ_SYMBOL>  (30) 
spiroindene-piperidine

>  <FULL_NAME>  (30) 
2,3-Dihydrospiro[indene-1,4'-piperidine]

>  <IUPAC_CONDENSED>  (30) 
spiro[indene-piperidine]

>  <IUPAC>  (30) 
spiro[indane-1,4'-piperidine]

>  <TYPE>  (30) 
C-term cap

>  <CLASS>  (30) 
c_cap

>  <ANALOG>  (30) 
X

>  <MOL_WT>  (30) 
187.28599999999997

>  <LOGP>  (30) 
2.2540000000000004

>  <TPSA>  (30) 
12.03

>  <POPULARITY>  (30) 
7.8

>  <PROTECTED>  (30) 
TRUE

>  <SMILES>  (30) 
N3CCC2(CC3)c1ccccc1CC2

>  <INCHIKEY>  (30) 
ZBYFQSPEUIVDTF-UHFFFAOYSA-N

$$$$
2-4F-Phoxan-4-amine
     RDKit          2D

 14 15  0  0  0  0  0  0  0  0999 V2000
    4.0847   -2.0033    0.0000 N   0  0  0  0  0  0  0  0  0  0  0  0
    3.2051   -0.7882    0.0000 C   0  0  0  0  0  0  0  0  0  0  0  0
    1.7131   -0.9424    0.0000 C   0  0  0  0  0  0  0  0  0  0  0  0
    0.8335    0.2727    0.0000 C   0  0  0  0  0  0  0  0  0  0  0  0
    1.4460    1.6419    0.0000 O   0  0  0  0  0  0  0  0  0  0  0  0
    2.9381    1.7961    0.0000 C   0  0  0  0  0  0  0  0  0  0  0  0
    3.8176    0.5810    0.0000 C   0  0  0  0  0  0  0  0  0  0  0  0
   -0.6585    0.1185    0.0000 C   0  0  0  0  0  0  0  0  0  0  0  0
   -1.5381    1.3336    0.0000 C   0  0  0  0  0  0  0  0  0  0  0  0
   -3.0301    1.1794    0.0000 C   0  0  0  0  0  0  0  0  0  0  0  0
   -3.6426   -0.1898    0.0000 C   0  0  0  0  0  0  0  0  0  0  0  0
   -2.7631   -1.4049    0.0000 C   0  0  0  0  0  0  0  0  0  0  0  0
   -1.2710   -1.2507    0.0000 C   0  0  0  0  0  0  0  0  0  0  0  0
   -5.1347   -0.3440    0.0000 F   0  0  0  0  0  0  0  0  0  0  0  0
  1  2  1  0
  2  3  1  0
  3  4  1  0
  4  5  1  0
  5  6  1  0
  6  7  1  0
  4  8  1  0
  8  9  1  0
  9 10  2  0
 10 11  1  0
 11 12  2  0
 12 13  1  0
 11 14  1  0
 13  8  2  0
  7  2  1  0
M  END
>  <rName>  (31) 
2-4F-Phoxan-4-amine

>  <PQ_SYMBOL>  (31) 
2-4F-Phoxan-4-amine

>  <FULL_NAME>  (31) 
2-(4-Fluorophenyl)oxan-4-amine

>  <IUPAC_CONDENSED>  (31) 
2-(4F-Ph)oxan-4-amine

>  <IUPAC>  (31) 
2-(4-fluorophenyl)-oxan-4-amine

>  <TYPE>  (31) 
C-term cap

>  <CLASS>  (31) 
c_cap

>  <ANALOG>  (31) 
X

>  <MOL_WT>  (31) 
195.237

>  <LOGP>  (31) 
2.0044999999999997

>  <TPSA>  (31) 
35.25

>  <POPULARITY>  (31) 
4.7

>  <PROTECTED>  (31) 
TRUE

>  <SMILES>  (31) 
NC2CC(OCC2)c1ccc(cc1)F

>  <INCHIKEY>  (31) 
KLNFGQMAZRFKQP-UHFFFAOYSA-N

$$$$
1-2OMe-Phcyclopropylamine
     RDKit          2D

 12 13  0  0  0  0  0  0  0  0999 V2000
   -2.0020   -1.9740    0.0000 N   0  0  0  0  0  0  0  0  0  0  0  0
   -1.6760   -0.5099    0.0000 C   0  0  0  0  0  0  0  0  0  0  0  0
   -3.0613    0.0654    0.0000 C   0  0  0  0  0  0  0  0  0  0  0  0
   -1.8704    0.9775    0.0000 C   0  0  0  0  0  0  0  0  0  0  0  0
   -0.1775   -0.5767    0.0000 C   0  0  0  0  0  0  0  0  0  0  0  0
    0.5139   -1.9078    0.0000 C   0  0  0  0  0  0  0  0  0  0  0  0
    2.0124   -1.9746    0.0000 C   0  0  0  0  0  0  0  0  0  0  0  0
    2.8195   -0.7103    0.0000 C   0  0  0  0  0  0  0  0  0  0  0  0
    2.1281    0.6209    0.0000 C   0  0  0  0  0  0  0  0  0  0  0  0
    0.6296    0.6877    0.0000 C   0  0  0  0  0  0  0  0  0  0  0  0
   -0.0618    2.0188    0.0000 O   0  0  0  0  0  0  0  0  0  0  0  0
    0.7453    3.2832    0.0000 C   0  0  0  0  0  0  0  0  0  0  0  0
  1  2  1  0
  2  3  1  0
  3  4  1  0
  2  5  1  0
  5  6  2  0
  6  7  1  0
  7  8  2  0
  8  9  1  0
  9 10  2  0
 10 11  1  0
 11 12  1  0
 10  5  1  0
  4  2  1  0
M  END
>  <rName>  (32) 
1-2OMe-Phcyclopropylamine

>  <PQ_SYMBOL>  (32) 
1-2OMe-Phcyclopropylamine

>  <FULL_NAME>  (32) 
1-(2-Methoxyphenyl)cyclopropanamine

>  <IUPAC_CONDENSED>  (32) 
1-(2OMe-Ph)cyclopropylamine

>  <IUPAC>  (32) 
1-(2-methoxyphenyl)cyclopropanamine

>  <TYPE>  (32) 
C-term cap

>  <CLASS>  (32) 
c_cap

>  <ANALOG>  (32) 
X

>  <MOL_WT>  (32) 
163.21999999999997

>  <LOGP>  (32) 
1.643

>  <TPSA>  (32) 
35.25

>  <POPULARITY>  (32) 
5.9

>  <PROTECTED>  (32) 
TRUE

>  <SMILES>  (32) 
NC2(CC2)c1ccccc1OC

>  <INCHIKEY>  (32) 
OLNNGMGXTFSLEW-UHFFFAOYSA-N

$$$$
Ile-OMe
     RDKit          2D

 10  9  0  0  0  0  0  0  0  0999 V2000
   -0.3512    2.3311    0.0000 N   0  0  0  0  0  0  0  0  0  0  0  0
   -0.3760    0.8313    0.0000 C   0  0  0  0  0  0  0  0  0  0  0  0
   -1.6873    0.1029    0.0000 C   0  0  0  0  0  0  0  0  0  0  0  0
   -2.9737    0.8743    0.0000 C   0  0  0  0  0  0  0  0  0  0  0  0
   -1.7121   -1.3969    0.0000 C   0  0  0  0  0  0  0  0  0  0  0  0
   -0.4256   -2.1683    0.0000 C   0  0  0  0  0  0  0  0  0  0  0  0
    0.9104    0.0599    0.0000 C   0  0  0  0  0  0  0  0  0  0  0  0
    0.8856   -1.4398    0.0000 O   0  0  0  0  0  0  0  0  0  0  0  0
    2.2217    0.7884    0.0000 O   0  0  0  0  0  0  0  0  0  0  0  0
    3.5082    0.0170    0.0000 C   0  0  0  0  0  0  0  0  0  0  0  0
  2  1  1  6
  2  3  1  0
  3  4  1  6
  3  5  1  0
  5  6  1  0
  2  7  1  0
  7  8  2  0
  7  9  1  0
  9 10  1  0
M  END
>  <rName>  (33) 
Ile-OMe

>  <PQ_SYMBOL>  (33) 
Ile-OMe

>  <FULL_NAME>  (33) 
Methyl L-isoleucinate

>  <IUPAC_CONDENSED>  (33) 
Ile-OMe

>  <IUPAC>  (33) 
methyl (2S,3S)-2-amino-3-methylpentanoate

>  <TYPE>  (33) 
C-term cap

>  <CLASS>  (33) 
c_cap

>  <ANALOG>  (33) 
X

>  <MOL_WT>  (33) 
145.202

>  <LOGP>  (33) 
0.5327999999999997

>  <TPSA>  (33) 
52.32000000000001

>  <POPULARITY>  (33) 
14.7

>  <PROTECTED>  (33) 
TRUE

>  <SMILES>  (33) 
N[C@@H]([C@@H](C)CC)C(=O)OC

>  <INCHIKEY>  (33) 
YXMMTUJDQTVJEN-WDSKDSINSA-N

$$$$
3-hydroxypropionyl
     RDKit          2D

  6  5  0  0  0  0  0  0  0  0999 V2000
    2.8748   -0.2197    0.0000 O   0  0  0  0  0  0  0  0  0  0  0  0
    1.4825    0.3386    0.0000 C   0  0  0  0  0  0  0  0  0  0  0  0
    0.3029   -0.5880    0.0000 C   0  0  0  0  0  0  0  0  0  0  0  0
   -1.0893   -0.0297    0.0000 C   0  0  0  0  0  0  0  0  0  0  0  0
   -1.3020    1.4551    0.0000 O   0  0  0  0  0  0  0  0  0  0  0  0
   -2.2689   -0.9563    0.0000 O   0  0  0  0  0  0  0  0  0  0  0  0
  1  2  1  0
  2  3  1  0
  3  4  1  0
  4  5  2  0
  4  6  1  0
M  END
>  <rName>  (34) 
3-hydroxypropionyl

>  <PQ_SYMBOL>  (34) 
3-hydroxypropionyl

>  <FULL_NAME>  (34) 
3-Hydroxypropionic acid

>  <IUPAC_CONDENSED>  (34) 
3-hydroxypropionyl

>  <IUPAC>  (34) 
3-hydroxypropanoic acid

>  <TYPE>  (34) 
N-term cap

>  <CLASS>  (34) 
n_cap

>  <ANALOG>  (34) 
X

>  <MOL_WT>  (34) 
90.07799999999999

>  <LOGP>  (34) 
-0.5466000000000002

>  <TPSA>  (34) 
57.53

>  <POPULARITY>  (34) 
17

>  <PROTECTED>  (34) 
TRUE

>  <SMILES>  (34) 
OCCC(=O)O

>  <INCHIKEY>  (34) 
ALRHLSYJTWAHJZ-UHFFFAOYSA-N

$$$$
piperidino
     RDKit          2D

  6  6  0  0  0  0  0  0  0  0999 V2000
    1.5000    0.0000    0.0000 N   0  0  0  0  0  0  0  0  0  0  0  0
    0.7500   -1.2990    0.0000 C   0  0  0  0  0  0  0  0  0  0  0  0
   -0.7500   -1.2990    0.0000 C   0  0  0  0  0  0  0  0  0  0  0  0
   -1.5000    0.0000    0.0000 C   0  0  0  0  0  0  0  0  0  0  0  0
   -0.7500    1.2990    0.0000 C   0  0  0  0  0  0  0  0  0  0  0  0
    0.7500    1.2990    0.0000 C   0  0  0  0  0  0  0  0  0  0  0  0
  1  2  1  0
  2  3  1  0
  3  4  1  0
  4  5  1  0
  5  6  1  0
  6  1  1  0
M  END
>  <rName>  (35) 
piperidino

>  <PQ_SYMBOL>  (35) 
piperidino

>  <FULL_NAME>  (35) 
Piperidine

>  <IUPAC_CONDENSED>  (35) 
piperidino

>  <IUPAC>  (35) 
piperidine

>  <TYPE>  (35) 
C-term cap

>  <CLASS>  (35) 
c_cap

>  <ANALOG>  (35) 
X

>  <MOL_WT>  (35) 
85.15

>  <LOGP>  (35) 
0.7599

>  <TPSA>  (35) 
12.03

>  <POPULARITY>  (35) 
17.1

>  <PROTECTED>  (35) 
TRUE

>  <SMILES>  (35) 
N1CCCCC1

>  <INCHIKEY>  (35) 
NQRYJNQNLNOLGT-UHFFFAOYSA-N

$$$$
Fmoc
     RDKit          2D

 18 20  0  0  0  0  0  0  0  0999 V2000
    3.8908   -2.1100    0.0000 C   0  0  0  0  0  0  0  0  0  0  0  0
    2.7759   -3.1135    0.0000 C   0  0  0  0  0  0  0  0  0  0  0  0
    1.3494   -2.6497    0.0000 C   0  0  0  0  0  0  0  0  0  0  0  0
    1.0378   -1.1824    0.0000 C   0  0  0  0  0  0  0  0  0  0  0  0
   -0.2611   -0.4322    0.0000 C   0  0  0  0  0  0  0  0  0  0  0  0
    0.0510    1.0350    0.0000 C   0  0  0  0  0  0  0  0  0  0  0  0
   -0.8304    2.2487    0.0000 C   0  0  0  0  0  0  0  0  0  0  0  0
   -0.2201    3.6189    0.0000 C   0  0  0  0  0  0  0  0  0  0  0  0
    1.2717    3.7754    0.0000 C   0  0  0  0  0  0  0  0  0  0  0  0
    2.1532    2.5617    0.0000 C   0  0  0  0  0  0  0  0  0  0  0  0
    1.5428    1.1915    0.0000 C   0  0  0  0  0  0  0  0  0  0  0  0
    2.1527   -0.1789    0.0000 C   0  0  0  0  0  0  0  0  0  0  0  0
    3.5792   -0.6427    0.0000 C   0  0  0  0  0  0  0  0  0  0  0  0
   -1.6315   -1.0420    0.0000 C   0  0  0  0  0  0  0  0  0  0  0  0
   -2.8449   -0.1601    0.0000 O   0  0  0  0  0  0  0  0  0  0  0  0
   -4.2153   -0.7700    0.0000 C   0  0  0  0  0  0  0  0  0  0  0  0
   -4.3724   -2.2617    0.0000 O   0  0  0  0  0  0  0  0  0  0  0  0
   -5.4287    0.1119    0.0000 O   0  0  0  0  0  0  0  0  0  0  0  0
  1  2  2  0
  2  3  1  0
  3  4  2  0
  4  5  1  0
  5  6  1  0
  6  7  2  0
  7  8  1  0
  8  9  2  0
  9 10  1  0
 10 11  2  0
 11 12  1  0
 12 13  2  0
  5 14  1  0
 14 15  1  0
 15 16  1  0
 16 17  2  0
 16 18  1  0
 11  6  1  0
 12  4  1  0
 13  1  1  0
M  END
>  <rName>  (36) 
Fmoc

>  <PQ_SYMBOL>  (36) 
Fmoc

>  <FULL_NAME>  (36) 
Fluoren-9-ylmethyl hydrogen carbonate

>  <IUPAC_CONDENSED>  (36) 
Fmoc

>  <IUPAC>  (36) 
(tricyclo[7.4.0.0^{2,7}]trideca-1(13),2,4,6,9,11-hexaen-8-yl)methyl hydrogen carbonate

>  <TYPE>  (36) 
N-term cap

>  <CLASS>  (36) 
n_cap

>  <ANALOG>  (36) 
X

>  <MOL_WT>  (36) 
240.25799999999992

>  <LOGP>  (36) 
3.493500000000002

>  <TPSA>  (36) 
46.53

>  <POPULARITY>  (36) 
5.6

>  <PROTECTED>  (36) 
FALSE

>  <SMILES>  (36) 
c3ccc2C(c1(ccccc1c2c3))COC(=O)O

>  <INCHIKEY>  (36) 
FGIVSGPRGVABAB-UHFFFAOYSA-N

$$$$
NHEt
     RDKit          2D

  3  2  0  0  0  0  0  0  0  0999 V2000
    1.2990   -0.2500    0.0000 N   0  0  0  0  0  0  0  0  0  0  0  0
    0.0000    0.5000    0.0000 C   0  0  0  0  0  0  0  0  0  0  0  0
   -1.2990   -0.2500    0.0000 C   0  0  0  0  0  0  0  0  0  0  0  0
  1  2  1  0
  2  3  1  0
M  END
>  <rName>  (37) 
NHEt

>  <PQ_SYMBOL>  (37) 
NHEt

>  <FULL_NAME>  (37) 
Ethylamine

>  <IUPAC_CONDENSED>  (37) 
NHEt

>  <IUPAC>  (37) 
ethanamine

>  <TYPE>  (37) 
C-term cap

>  <CLASS>  (37) 
c_cap

>  <ANALOG>  (37) 
X

>  <MOL_WT>  (37) 
45.084999999999994

>  <LOGP>  (37) 
-0.03499999999999992

>  <TPSA>  (37) 
26.02

>  <POPULARITY>  (37) 
2

>  <PROTECTED>  (37) 
FALSE

>  <SMILES>  (37) 
NCC

>  <INCHIKEY>  (37) 
QUSNBJAOOMFDIB-UHFFFAOYSA-N

$$$$
Thr-ol
     RDKit          2D

  7  6  0  0  0  0  0  0  0  0999 V2000
   -0.5797    1.7367    0.0000 N   0  0  0  0  0  0  0  0  0  0  0  0
   -0.2514    0.2730    0.0000 C   0  0  0  0  0  0  0  0  0  0  0  0
   -1.3548   -0.7431    0.0000 C   0  0  0  0  0  0  0  0  0  0  0  0
   -2.7865   -0.2956    0.0000 O   0  0  0  0  0  0  0  0  0  0  0  0
    1.1803   -0.1745    0.0000 C   0  0  0  0  0  0  0  0  0  0  0  0
    2.2837    0.8417    0.0000 C   0  0  0  0  0  0  0  0  0  0  0  0
    1.5086   -1.6381    0.0000 O   0  0  0  0  0  0  0  0  0  0  0  0
  2  1  1  1
  2  3  1  0
  3  4  1  0
  2  5  1  0
  5  6  1  1
  5  7  1  0
M  END
>  <rName>  (38) 
Thr-ol

>  <PQ_SYMBOL>  (38) 
Thr-ol

>  <FULL_NAME>  (38) 
L-Threoninol

>  <IUPAC_CONDENSED>  (38) 
Thr-ol

>  <IUPAC>  (38) 
(2R,3R)-2-aminobutane-1,3-diol

>  <TYPE>  (38) 
C-term cap

>  <CLASS>  (38) 
c_cap

>  <ANALOG>  (38) 
X

>  <MOL_WT>  (38) 
105.13699999999999

>  <LOGP>  (38) 
-1.3132

>  <TPSA>  (38) 
66.48

>  <POPULARITY>  (38) 
19.8

>  <PROTECTED>  (38) 
FALSE

>  <SMILES>  (38) 
N[C@H](CO)[C@@H](C)O

>  <INCHIKEY>  (38) 
MUVQIIBPDFTEKM-QWWZWVQMSA-N

$$$$
morpholinoacetyl
     RDKit          2D

 10 10  0  0  0  0  0  0  0  0999 V2000
   -3.0048   -0.4910    0.0000 O   0  0  0  0  0  0  0  0  0  0  0  0
   -2.7213    0.9820    0.0000 C   0  0  0  0  0  0  0  0  0  0  0  0
   -1.3040    1.4730    0.0000 C   0  0  0  0  0  0  0  0  0  0  0  0
   -0.1701    0.4910    0.0000 N   0  0  0  0  0  0  0  0  0  0  0  0
   -0.4536   -0.9820    0.0000 C   0  0  0  0  0  0  0  0  0  0  0  0
   -1.8709   -1.4730    0.0000 C   0  0  0  0  0  0  0  0  0  0  0  0
    1.2473    0.9820    0.0000 C   0  0  0  0  0  0  0  0  0  0  0  0
    2.3812   -0.0000    0.0000 C   0  0  0  0  0  0  0  0  0  0  0  0
    2.0977   -1.4730    0.0000 O   0  0  0  0  0  0  0  0  0  0  0  0
    3.7985    0.4910    0.0000 O   0  0  0  0  0  0  0  0  0  0  0  0
  1  2  1  0
  2  3  1  0
  3  4  1  0
  4  5  1  0
  5  6  1  0
  4  7  1  0
  7  8  1  0
  8  9  2  0
  8 10  1  0
  6  1  1  0
M  END
>  <rName>  (39) 
morpholinoacetyl

>  <PQ_SYMBOL>  (39) 
morpholinoacetyl

>  <FULL_NAME>  (39) 
4-Morpholineacetic Acid

>  <IUPAC_CONDENSED>  (39) 
morpholinoacetyl

>  <IUPAC>  (39) 
2-(morpholin-4-yl)acetic acid

>  <TYPE>  (39) 
N-term cap

>  <CLASS>  (39) 
n_cap

>  <ANALOG>  (39) 
X

>  <MOL_WT>  (39) 
145.158

>  <LOGP>  (39) 
-0.5968000000000002

>  <TPSA>  (39) 
49.769999999999996

>  <POPULARITY>  (39) 
24

>  <PROTECTED>  (39) 
FALSE

>  <SMILES>  (39) 
O1CCN(CC1)CC(=O)O

>  <INCHIKEY>  (39) 
VIWZVFVJPXTXPA-UHFFFAOYSA-N

$$$$
NHMe
     RDKit          2D

  2  1  0  0  0  0  0  0  0  0999 V2000
    0.7500   -0.0000    0.0000 N   0  0  0  0  0  0  0  0  0  0  0  0
   -0.7500    0.0000    0.0000 C   0  0  0  0  0  0  0  0  0  0  0  0
  1  2  1  0
M  END
>  <rName>  (40) 
NHMe

>  <PQ_SYMBOL>  (40) 
NHMe

>  <FULL_NAME>  (40) 
N-methyl amide

>  <IUPAC_CONDENSED>  (40) 
NHMe

>  <IUPAC>  (40) 
methanamine

>  <TYPE>  (40) 
C-term cap

>  <CLASS>  (40) 
c_cap

>  <ANALOG>  (40) 
X

>  <MOL_WT>  (40) 
31.058

>  <LOGP>  (40) 
-0.42510000000000003

>  <TPSA>  (40) 
26.02

>  <POPULARITY>  (40) 
2

>  <PROTECTED>  (40) 
FALSE

>  <SMILES>  (40) 
NC

>  <INCHIKEY>  (40) 
BAVYZALUXZFZLV-UHFFFAOYSA-N

$$$$
2-hydroxyacetyl
     RDKit          2D

  5  4  0  0  0  0  0  0  0  0999 V2000
   -2.0785    0.0000    0.0000 O   0  0  0  0  0  0  0  0  0  0  0  0
   -0.7794   -0.7500    0.0000 C   0  0  0  0  0  0  0  0  0  0  0  0
    0.5196   -0.0000    0.0000 C   0  0  0  0  0  0  0  0  0  0  0  0
    0.5196    1.5000    0.0000 O   0  0  0  0  0  0  0  0  0  0  0  0
    1.8187   -0.7500    0.0000 O   0  0  0  0  0  0  0  0  0  0  0  0
  1  2  1  0
  2  3  1  0
  3  4  2  0
  3  5  1  0
M  END
>  <rName>  (41) 
2-hydroxyacetyl

>  <PQ_SYMBOL>  (41) 
2-hydroxyacetyl

>  <FULL_NAME>  (41) 
Hydroxyacetic acid, glycolic acid

>  <IUPAC_CONDENSED>  (41) 
2-hydroxyacetyl

>  <IUPAC>  (41) 
2-hydroxyacetic acid

>  <TYPE>  (41) 
N-term cap

>  <CLASS>  (41) 
n_cap

>  <ANALOG>  (41) 
X

>  <MOL_WT>  (41) 
76.051

>  <LOGP>  (41) 
-0.9367000000000001

>  <TPSA>  (41) 
57.53

>  <POPULARITY>  (41) 
14.9

>  <PROTECTED>  (41) 
FALSE

>  <SMILES>  (41) 
OCC(=O)O

>  <INCHIKEY>  (41) 
AEMRFAOFKBGASW-UHFFFAOYSA-N

$$$$
Boc
     RDKit          2D

  8  7  0  0  0  0  0  0  0  0999 V2000
   -1.8975    1.3780    0.0000 C   0  0  0  0  0  0  0  0  0  0  0  0
   -1.1374    0.0849    0.0000 C   0  0  0  0  0  0  0  0  0  0  0  0
   -0.3772   -1.2083    0.0000 C   0  0  0  0  0  0  0  0  0  0  0  0
   -2.4305   -0.6752    0.0000 C   0  0  0  0  0  0  0  0  0  0  0  0
    0.1558    0.8450    0.0000 O   0  0  0  0  0  0  0  0  0  0  0  0
    1.4606    0.1051    0.0000 C   0  0  0  0  0  0  0  0  0  0  0  0
    1.4723   -1.3948    0.0000 O   0  0  0  0  0  0  0  0  0  0  0  0
    2.7538    0.8653    0.0000 O   0  0  0  0  0  0  0  0  0  0  0  0
  1  2  1  0
  2  3  1  0
  2  4  1  0
  2  5  1  0
  5  6  1  0
  6  7  2  0
  6  8  1  0
M  END
>  <rName>  (42) 
Boc

>  <PQ_SYMBOL>  (42) 
Boc

>  <FULL_NAME>  (42) 
Boc

>  <IUPAC_CONDENSED>  (42) 
Boc

>  <IUPAC>  (42) 
tert-butyl hydrogen carbonate

>  <TYPE>  (42) 
N-term cap

>  <CLASS>  (42) 
n_cap

>  <ANALOG>  (42) 
X

>  <MOL_WT>  (42) 
118.13199999999998

>  <LOGP>  (42) 
1.4795

>  <TPSA>  (42) 
46.53

>  <POPULARITY>  (42) 
14.3

>  <PROTECTED>  (42) 
FALSE

>  <SMILES>  (42) 
CC(C)(C)OC(=O)O

>  <INCHIKEY>  (42) 
XKXIQBVKMABYQJ-UHFFFAOYSA-N

$$$$
Aib-OMe
     RDKit          2D

  8  7  0  0  0  0  0  0  0  0999 V2000
    2.4726   -0.5658    0.0000 N   0  0  0  0  0  0  0  0  0  0  0  0
    1.0348   -0.1383    0.0000 C   0  0  0  0  0  0  0  0  0  0  0  0
    1.4623    1.2995    0.0000 C   0  0  0  0  0  0  0  0  0  0  0  0
    0.6073   -1.5761    0.0000 C   0  0  0  0  0  0  0  0  0  0  0  0
   -0.4030    0.2892    0.0000 C   0  0  0  0  0  0  0  0  0  0  0  0
   -0.7517    1.7482    0.0000 O   0  0  0  0  0  0  0  0  0  0  0  0
   -1.4922   -0.7422    0.0000 O   0  0  0  0  0  0  0  0  0  0  0  0
   -2.9299   -0.3147    0.0000 C   0  0  0  0  0  0  0  0  0  0  0  0
  1  2  1  0
  2  3  1  0
  2  4  1  0
  2  5  1  0
  5  6  2  0
  5  7  1  0
  7  8  1  0
M  END
>  <rName>  (43) 
Aib-OMe

>  <PQ_SYMBOL>  (43) 
Aib-OMe

>  <FULL_NAME>  (43) 
alpha-aminoisobutyric acid (2-aminoalanine) methyl ester

>  <IUPAC_CONDENSED>  (43) 
Aib-OMe

>  <IUPAC>  (43) 
methyl 2-amino-2-methylpropanoate

>  <TYPE>  (43) 
C-term cap

>  <CLASS>  (43) 
c_cap

>  <ANALOG>  (43) 
X

>  <MOL_WT>  (43) 
117.14799999999998

>  <LOGP>  (43) 
-0.10330000000000017

>  <TPSA>  (43) 
52.32000000000001

>  <POPULARITY>  (43) 
20

>  <PROTECTED>  (43) 
TRUE

>  <SMILES>  (43) 
NC(C)(C)C(=O)OC

>  <INCHIKEY>  (43) 
HMZHEECHJWHZJX-UHFFFAOYSA-N

$$$$
NMe-P
     RDKit          2D

  9  9  0  0  0  0  0  0  0  0999 V2000
   -2.2485   -0.2821    0.0000 C   0  0  0  0  0  0  0  0  0  0  0  0
   -0.8624   -0.8555    0.0000 N   0  0  0  0  0  0  0  0  0  0  0  0
   -0.5115   -2.3139    0.0000 C   0  0  0  0  0  0  0  0  0  0  0  0
    0.1113    0.2855    0.0000 C   0  0  0  0  0  0  0  0  0  0  0  0
   -0.6730    1.5641    0.0000 C   0  0  0  0  0  0  0  0  0  0  0  0
   -2.1314    1.2133    0.0000 C   0  0  0  0  0  0  0  0  0  0  0  0
    1.6067    0.1685    0.0000 C   0  0  0  0  0  0  0  0  0  0  0  0
    2.4558    1.4051    0.0000 O   0  0  0  0  0  0  0  0  0  0  0  0
    2.2531   -1.1851    0.0000 O   0  0  0  0  0  0  0  0  0  0  0  0
  1  2  1  0
  2  3  1  0
  2  4  1  0
  4  5  1  0
  5  6  1  0
  4  7  1  1
  7  8  2  0
  7  9  1  0
  6  1  1  0
M  END
>  <rName>  (44) 
NMe-P

>  <PQ_SYMBOL>  (44) 
NMe-P

>  <FULL_NAME>  (44) 
methyl Proline

>  <IUPAC_CONDENSED>  (44) 
Me-Pro

>  <IUPAC>  (44) 
(2S)-1-methylpyrrolidine-2-carboxylic acid

>  <TYPE>  (44) 
N-term cap

>  <CLASS>  (44) 
n_cap

>  <ANALOG>  (44) 
X

>  <MOL_WT>  (44) 
129.15900000000002

>  <LOGP>  (44) 
0.16519999999999996

>  <TPSA>  (44) 
40.540000000000006

>  <POPULARITY>  (44) 
24.3

>  <PROTECTED>  (44) 
TRUE

>  <SMILES>  (44) 
C1N(C)[C@@H](CC1)C(=O)O

>  <INCHIKEY>  (44) 
CWLQUGTUXBXTLF-YFKPBYRVSA-N

$$$$
aCF3Pro
     RDKit          2D

 12 12  0  0  0  0  0  0  0  0999 V2000
   -1.0627   -1.2381    0.0000 N   0  0  0  0  0  0  0  0  0  0  0  0
   -0.3042    0.0560    0.0000 C   0  0  0  0  0  0  0  0  0  0  0  0
   -1.3005    1.1773    0.0000 C   0  0  0  0  0  0  0  0  0  0  0  0
   -2.6748    0.5762    0.0000 C   0  0  0  0  0  0  0  0  0  0  0  0
   -2.5278   -0.9166    0.0000 C   0  0  0  0  0  0  0  0  0  0  0  0
    0.9036   -0.8336    0.0000 C   0  0  0  0  0  0  0  0  0  0  0  0
    2.1113   -1.7232    0.0000 F   0  0  0  0  0  0  0  0  0  0  0  0
    0.0139   -2.0413    0.0000 F   0  0  0  0  0  0  0  0  0  0  0  0
    1.8307    0.1476    0.0000 F   0  0  0  0  0  0  0  0  0  0  0  0
    0.7068    1.1641    0.0000 C   0  0  0  0  0  0  0  0  0  0  0  0
    2.0509    1.0377    0.0000 O   0  0  0  0  0  0  0  0  0  0  0  0
    0.2527    2.5937    0.0000 O   0  0  0  0  0  0  0  0  0  0  0  0
  1  2  1  0
  2  3  1  0
  3  4  1  0
  4  5  1  0
  2  6  1  6
  6  7  1  0
  6  8  1  0
  6  9  1  0
  2 10  1  0
 10 11  2  0
 10 12  1  0
  5  1  1  0
M  END
>  <rName>  (45) 
aCF3Pro

>  <PQ_SYMBOL>  (45) 
aCF3Pro

>  <FULL_NAME>  (45) 
(2S)-2-(trifluoromethyl)pyrrolidine-2-carboxylic acid

>  <IUPAC_CONDENSED>  (45) 
aCF3Pro

>  <IUPAC>  (45) 
(2S)-2-(trifluoromethyl)pyrrolidine-2-carboxylic acid

>  <TYPE>  (45) 
N-term cap

>  <CLASS>  (45) 
n_cap

>  <ANALOG>  (45) 
X

>  <MOL_WT>  (45) 
183.129

>  <LOGP>  (45) 
0.7554999999999998

>  <TPSA>  (45) 
49.33

>  <POPULARITY>  (45) 
5.3

>  <PROTECTED>  (45) 
TRUE

>  <SMILES>  (45) 
N1[C@](CCC1)(C(F)(F)F)C(=O)O

>  <INCHIKEY>  (45) 
JOMHNFHOGGKSIM-YFKPBYRVSA-N

$$$$
hPhe-OEt
     RDKit          2D

 15 15  0  0  0  0  0  0  0  0999 V2000
   -1.6744   -2.0992    0.0000 N   0  0  0  0  0  0  0  0  0  0  0  0
   -1.4783   -0.6120    0.0000 C   0  0  0  0  0  0  0  0  0  0  0  0
   -2.6682    0.3013    0.0000 C   0  0  0  0  0  0  0  0  0  0  0  0
   -2.4721    1.7885    0.0000 O   0  0  0  0  0  0  0  0  0  0  0  0
   -4.0541   -0.2724    0.0000 O   0  0  0  0  0  0  0  0  0  0  0  0
   -5.2440    0.6409    0.0000 C   0  0  0  0  0  0  0  0  0  0  0  0
   -6.6299    0.0672    0.0000 C   0  0  0  0  0  0  0  0  0  0  0  0
   -0.0924   -0.0383    0.0000 C   0  0  0  0  0  0  0  0  0  0  0  0
    1.0975   -0.9516    0.0000 C   0  0  0  0  0  0  0  0  0  0  0  0
    2.4834   -0.3778    0.0000 C   0  0  0  0  0  0  0  0  0  0  0  0
    2.6795    1.1093    0.0000 C   0  0  0  0  0  0  0  0  0  0  0  0
    4.0654    1.6831    0.0000 C   0  0  0  0  0  0  0  0  0  0  0  0
    5.2552    0.7697    0.0000 C   0  0  0  0  0  0  0  0  0  0  0  0
    5.0592   -0.7174    0.0000 C   0  0  0  0  0  0  0  0  0  0  0  0
    3.6733   -1.2912    0.0000 C   0  0  0  0  0  0  0  0  0  0  0  0
  2  1  1  6
  2  3  1  0
  3  4  2  0
  3  5  1  0
  5  6  1  0
  6  7  1  0
  2  8  1  0
  8  9  1  0
  9 10  1  0
 10 11  2  0
 11 12  1  0
 12 13  2  0
 13 14  1  0
 14 15  2  0
 15 10  1  0
M  END
>  <rName>  (46) 
hPhe-OEt

>  <PQ_SYMBOL>  (46) 
hPhe-OEt

>  <FULL_NAME>  (46) 
ethyl (2S)-2-amino-4-phenylbutanoate

>  <IUPAC_CONDENSED>  (46) 
hPhe-OEt

>  <IUPAC>  (46) 
ethyl (2S)-2-amino-4-phenylbutanoate

>  <TYPE>  (46) 
C-term cap

>  <CLASS>  (46) 
c_cap

>  <ANALOG>  (46) 
X

>  <MOL_WT>  (46) 
207.27300000000002

>  <LOGP>  (46) 
1.5095999999999996

>  <TPSA>  (46) 
52.32000000000001

>  <POPULARITY>  (46) 
12.2

>  <PROTECTED>  (46) 
TRUE

>  <SMILES>  (46) 
N[C@H](C(=O)OCC)CCc1ccccc1

>  <INCHIKEY>  (46) 
WFLQXECQLHZKMV-NSHDSACASA-N

$$$$
amidino-D-Pro
     RDKit          2D

 11 11  0  0  0  0  0  0  0  0999 V2000
   -3.1235   -0.6434    0.0000 N   0  0  0  0  0  0  0  0  0  0  0  0
   -1.6317   -0.8002    0.0000 C   0  0  0  0  0  0  0  0  0  0  0  0
   -1.0216   -2.1705    0.0000 N   0  0  0  0  0  0  0  0  0  0  0  0
   -0.7500    0.4133    0.0000 N   0  0  0  0  0  0  0  0  0  0  0  0
    0.7500    0.4133    0.0000 C   0  0  0  0  0  0  0  0  0  0  0  0
    1.2135    1.8399    0.0000 C   0  0  0  0  0  0  0  0  0  0  0  0
   -0.0000    2.7216    0.0000 C   0  0  0  0  0  0  0  0  0  0  0  0
   -1.2135    1.8399    0.0000 C   0  0  0  0  0  0  0  0  0  0  0  0
    1.6317   -0.8002    0.0000 C   0  0  0  0  0  0  0  0  0  0  0  0
    3.1235   -0.6434    0.0000 O   0  0  0  0  0  0  0  0  0  0  0  0
    1.0216   -2.1705    0.0000 O   0  0  0  0  0  0  0  0  0  0  0  0
  1  2  1  0
  2  3  2  0
  2  4  1  0
  4  5  1  0
  5  6  1  0
  6  7  1  0
  7  8  1  0
  5  9  1  6
  9 10  2  0
  9 11  1  0
  8  4  1  0
M  END
>  <rName>  (47) 
amidino-D-Pro

>  <PQ_SYMBOL>  (47) 
amidino-D-Pro

>  <FULL_NAME>  (47) 
(2R)-1-carbamimidoylpyrrolidine-2-carboxylic acid

>  <IUPAC_CONDENSED>  (47) 
amidino-D-Pro

>  <IUPAC>  (47) 
(2R)-1-((amino)(imino)methyl)pyrrolidine-2-carboxylic acid

>  <TYPE>  (47) 
N-term cap

>  <CLASS>  (47) 
n_cap

>  <ANALOG>  (47) 
X

>  <MOL_WT>  (47) 
157.173

>  <LOGP>  (47) 
-0.5711299999999999

>  <TPSA>  (47) 
90.41000000000001

>  <POPULARITY>  (47) 
7.9

>  <PROTECTED>  (47) 
TRUE

>  <SMILES>  (47) 
NC(=N)N1[C@H](CCC1)C(=O)O

>  <INCHIKEY>  (47) 
ZXPRYJHVDMWTMA-SCSAIBSYSA-N

$$$$
Arg-Me
     RDKit          2D

 12 11  0  0  0  0  0  0  0  0999 V2000
   -2.4617   -1.9005    0.0000 N   0  0  0  0  0  0  0  0  0  0  0  0
   -2.4001   -0.4018    0.0000 C   0  0  0  0  0  0  0  0  0  0  0  0
   -3.6672    0.4010    0.0000 C   0  0  0  0  0  0  0  0  0  0  0  0
   -3.6056    1.8997    0.0000 O   0  0  0  0  0  0  0  0  0  0  0  0
   -4.9960   -0.2950    0.0000 C   0  0  0  0  0  0  0  0  0  0  0  0
   -1.0713    0.2943    0.0000 C   0  0  0  0  0  0  0  0  0  0  0  0
    0.1958   -0.5085    0.0000 C   0  0  0  0  0  0  0  0  0  0  0  0
    1.5245    0.1875    0.0000 C   0  0  0  0  0  0  0  0  0  0  0  0
    2.7917   -0.6152    0.0000 N   0  0  0  0  0  0  0  0  0  0  0  0
    4.1204    0.0808    0.0000 C   0  0  0  0  0  0  0  0  0  0  0  0
    5.3876   -0.7219    0.0000 N   0  0  0  0  0  0  0  0  0  0  0  0
    4.1820    1.5796    0.0000 N   0  0  0  0  0  0  0  0  0  0  0  0
  2  1  1  6
  2  3  1  0
  3  4  2  0
  3  5  1  0
  2  6  1  0
  6  7  1  0
  7  8  1  0
  8  9  1  0
  9 10  2  0
 10 11  1  0
 10 12  1  0
M  END
>  <rName>  (48) 
Arg-Me

>  <PQ_SYMBOL>  (48) 
Arg-Me

>  <FULL_NAME>  (48) 
Arginine methyl

>  <IUPAC_CONDENSED>  (48) 
Arg-Me

>  <IUPAC>  (48) 
(3S)-3-amino-6-((diaminomethylidene)amino)hexan-2-one

>  <TYPE>  (48) 
C-term cap

>  <CLASS>  (48) 
c_cap

>  <ANALOG>  (48) 
X

>  <MOL_WT>  (48) 
172.232

>  <LOGP>  (48) 
-1.0436999999999987

>  <TPSA>  (48) 
107.49

>  <POPULARITY>  (48) 
9.1

>  <PROTECTED>  (48) 
FALSE

>  <SMILES>  (48) 
N[C@H](C(=O)C)CCCN=C(N)N

>  <INCHIKEY>  (48) 
GCCQNSQKSSOQIR-LURJTMIESA-N

$$$$
EtOCO-D-Phg
     RDKit          2D

 16 16  0  0  0  0  0  0  0  0999 V2000
    5.9112    1.5500    0.0000 C   0  0  0  0  0  0  0  0  0  0  0  0
    4.7597    0.5888    0.0000 C   0  0  0  0  0  0  0  0  0  0  0  0
    3.3514    1.1054    0.0000 O   0  0  0  0  0  0  0  0  0  0  0  0
    2.1999    0.1442    0.0000 C   0  0  0  0  0  0  0  0  0  0  0  0
    2.4566   -1.3337    0.0000 O   0  0  0  0  0  0  0  0  0  0  0  0
    0.7917    0.6608    0.0000 N   0  0  0  0  0  0  0  0  0  0  0  0
   -0.3599   -0.3004    0.0000 C   0  0  0  0  0  0  0  0  0  0  0  0
   -1.7681    0.2163    0.0000 C   0  0  0  0  0  0  0  0  0  0  0  0
   -2.9196   -0.7450    0.0000 C   0  0  0  0  0  0  0  0  0  0  0  0
   -4.3278   -0.2283    0.0000 C   0  0  0  0  0  0  0  0  0  0  0  0
   -4.5845    1.2496    0.0000 C   0  0  0  0  0  0  0  0  0  0  0  0
   -3.4330    2.2108    0.0000 C   0  0  0  0  0  0  0  0  0  0  0  0
   -2.0248    1.6941    0.0000 C   0  0  0  0  0  0  0  0  0  0  0  0
   -0.1032   -1.7783    0.0000 C   0  0  0  0  0  0  0  0  0  0  0  0
   -1.2547   -2.7395    0.0000 O   0  0  0  0  0  0  0  0  0  0  0  0
    1.3050   -2.2949    0.0000 O   0  0  0  0  0  0  0  0  0  0  0  0
  1  2  1  0
  2  3  1  0
  3  4  1  0
  4  5  2  0
  4  6  1  0
  7  6  1  1
  7  8  1  0
  8  9  2  0
  9 10  1  0
 10 11  2  0
 11 12  1  0
 12 13  2  0
  7 14  1  0
 14 15  2  0
 14 16  1  0
 13  8  1  0
M  END
>  <rName>  (49) 
EtOCO-D-Phg

>  <PQ_SYMBOL>  (49) 
EtOCO-D-Phg

>  <FULL_NAME>  (49) 
ethylcarboxyl D-2-phenylglycine

>  <IUPAC_CONDENSED>  (49) 
EtOCO-D-Phg

>  <IUPAC>  (49) 
(2R)-2-ethoxycarbonylamino-2-phenylacetic acid

>  <TYPE>  (49) 
N-term cap

>  <CLASS>  (49) 
n_cap

>  <ANALOG>  (49) 
X

>  <MOL_WT>  (49) 
223.228

>  <LOGP>  (49) 
1.5584

>  <TPSA>  (49) 
75.63

>  <POPULARITY>  (49) 
8.6

>  <PROTECTED>  (49) 
TRUE

>  <SMILES>  (49) 
CCOC(=O)N[C@H](c1(ccccc1))C(=O)O

>  <INCHIKEY>  (49) 
RBYBUHMCHHFGHS-SECBINFHSA-N

$$$$
S-6-benzylpiperazin-2-one
     RDKit          2D

 14 15  0  0  0  0  0  0  0  0999 V2000
    3.6106   -1.2140    0.0000 N   0  0  0  0  0  0  0  0  0  0  0  0
    2.2448   -1.8342    0.0000 C   0  0  0  0  0  0  0  0  0  0  0  0
    1.0248   -0.9614    0.0000 C   0  0  0  0  0  0  0  0  0  0  0  0
    1.1707    0.5315    0.0000 N   0  0  0  0  0  0  0  0  0  0  0  0
    2.5365    1.1516    0.0000 C   0  0  0  0  0  0  0  0  0  0  0  0
    2.6824    2.6445    0.0000 O   0  0  0  0  0  0  0  0  0  0  0  0
    3.7565    0.2788    0.0000 C   0  0  0  0  0  0  0  0  0  0  0  0
   -0.3410   -1.5815    0.0000 C   0  0  0  0  0  0  0  0  0  0  0  0
   -1.5609   -0.7087    0.0000 C   0  0  0  0  0  0  0  0  0  0  0  0
   -1.4151    0.7842    0.0000 C   0  0  0  0  0  0  0  0  0  0  0  0
   -2.6350    1.6570    0.0000 C   0  0  0  0  0  0  0  0  0  0  0  0
   -4.0008    1.0369    0.0000 C   0  0  0  0  0  0  0  0  0  0  0  0
   -4.1467   -0.4560    0.0000 C   0  0  0  0  0  0  0  0  0  0  0  0
   -2.9268   -1.3288    0.0000 C   0  0  0  0  0  0  0  0  0  0  0  0
  1  2  1  0
  2  3  1  0
  3  4  1  0
  4  5  1  0
  5  6  2  0
  5  7  1  0
  3  8  1  6
  8  9  1  0
  9 10  2  0
 10 11  1  0
 11 12  2  0
 12 13  1  0
 13 14  2  0
 14  9  1  0
  7  1  1  0
M  END
>  <rName>  (50) 
S-6-benzylpiperazin-2-one

>  <PQ_SYMBOL>  (50) 
S-6-benzylpiperazin-2-one

>  <FULL_NAME>  (50) 
(6S)-6-benzylpiperazin-2-one

>  <IUPAC_CONDENSED>  (50) 
S-6-benzylpiperazin-2-one

>  <IUPAC>  (50) 
(6S)-6-benzylpiperazin-2-one

>  <TYPE>  (50) 
C-term cap

>  <CLASS>  (50) 
c_cap

>  <ANALOG>  (50) 
X

>  <MOL_WT>  (50) 
190.24600000000004

>  <LOGP>  (50) 
0.3170999999999997

>  <TPSA>  (50) 
41.129999999999995

>  <POPULARITY>  (50) 
11.8

>  <PROTECTED>  (50) 
TRUE

>  <SMILES>  (50) 
N2C[C@@H](NC(=O)C2)Cc1ccccc1

>  <INCHIKEY>  (50) 
PGNYGDAFMUYUNJ-JTQLQIEISA-N

$$$$
Ac3c_2SEt
     RDKit          2D

  9  9  0  0  0  0  0  0  0  0999 V2000
   -2.3058    0.6435    0.0000 N   0  0  0  0  0  0  0  0  0  0  0  0
   -0.8074    0.5739    0.0000 C   0  0  0  0  0  0  0  0  0  0  0  0
   -0.6157   -0.9138    0.0000 C   0  0  0  0  0  0  0  0  0  0  0  0
    0.7685   -1.4916    0.0000 O   0  0  0  0  0  0  0  0  0  0  0  0
   -1.8082   -1.8236    0.0000 O   0  0  0  0  0  0  0  0  0  0  0  0
    0.6244    1.0211    0.0000 C   0  0  0  0  0  0  0  0  0  0  0  0
   -0.4787    2.0375    0.0000 C   0  0  0  0  0  0  0  0  0  0  0  0
    2.0879    0.6924    0.0000 C   0  0  0  0  0  0  0  0  0  0  0  0
    2.5351   -0.7394    0.0000 C   0  0  0  0  0  0  0  0  0  0  0  0
  2  1  1  1
  2  3  1  0
  3  4  2  0
  3  5  1  0
  2  6  1  0
  6  7  1  0
  6  8  1  6
  8  9  1  0
  7  2  1  0
M  END
>  <rName>  (51) 
Ac3c_2SEt

>  <PQ_SYMBOL>  (51) 
Ac3c_2SEt

>  <FULL_NAME>  (51) 
(1S,2S)-1-amino-2-ethylcyclopropane-1-carboxylic acid

>  <IUPAC_CONDENSED>  (51) 
Ac3c(2S-Et)

>  <IUPAC>  (51) 
(1S,2S)-1-amino-2-ethylcyclopropanecarboxylic acid

>  <TYPE>  (51) 
C-term cap

>  <CLASS>  (51) 
c_cap

>  <ANALOG>  (51) 
X

>  <MOL_WT>  (51) 
129.159

>  <LOGP>  (51) 
0.19839999999999947

>  <TPSA>  (51) 
63.32000000000001

>  <POPULARITY>  (51) 
6.9

>  <PROTECTED>  (51) 
TRUE

>  <SMILES>  (51) 
N[C@]1(C(=O)O)[C@H](C1)CC

>  <INCHIKEY>  (51) 
RLHIWMRQDUCBDO-NJGYIYPDSA-N

$$$$
Ac7c-OMe
     RDKit          2D

 12 12  0  0  0  0  0  0  0  0999 V2000
    1.0514   -1.5612    0.0000 N   0  0  0  0  0  0  0  0  0  0  0  0
    0.1237   -0.3824    0.0000 C   0  0  0  0  0  0  0  0  0  0  0  0
    1.4793    0.2597    0.0000 C   0  0  0  0  0  0  0  0  0  0  0  0
    1.6009    1.7548    0.0000 O   0  0  0  0  0  0  0  0  0  0  0  0
    2.7132   -0.5932    0.0000 O   0  0  0  0  0  0  0  0  0  0  0  0
    4.0688    0.0489    0.0000 C   0  0  0  0  0  0  0  0  0  0  0  0
   -0.2007    1.0821    0.0000 C   0  0  0  0  0  0  0  0  0  0  0  0
   -1.5480    1.7415    0.0000 C   0  0  0  0  0  0  0  0  0  0  0  0
   -2.9036    1.0994    0.0000 C   0  0  0  0  0  0  0  0  0  0  0  0
   -3.2467   -0.3608    0.0000 C   0  0  0  0  0  0  0  0  0  0  0  0
   -2.3190   -1.5396    0.0000 C   0  0  0  0  0  0  0  0  0  0  0  0
   -0.8191   -1.5492    0.0000 C   0  0  0  0  0  0  0  0  0  0  0  0
  1  2  1  0
  2  3  1  0
  3  4  2  0
  3  5  1  0
  5  6  1  0
  2  7  1  0
  7  8  1  0
  8  9  1  0
  9 10  1  0
 10 11  1  0
 11 12  1  0
 12  2  1  0
M  END
>  <rName>  (52) 
Ac7c-OMe

>  <PQ_SYMBOL>  (52) 
Ac7c-OMe

>  <FULL_NAME>  (52) 
methyl 1-aminocycloheptane-1-carboxylate

>  <IUPAC_CONDENSED>  (52) 
Ac7c-OMe

>  <IUPAC>  (52) 
methyl 1-aminocycloheptanecarboxylate

>  <TYPE>  (52) 
C-term cap

>  <CLASS>  (52) 
c_cap

>  <ANALOG>  (52) 
X

>  <MOL_WT>  (52) 
171.23999999999995

>  <LOGP>  (52) 
1.2110999999999994

>  <TPSA>  (52) 
52.32000000000001

>  <POPULARITY>  (52) 
6.2

>  <PROTECTED>  (52) 
TRUE

>  <SMILES>  (52) 
NC1(C(=O)OC)CCCCCC1

>  <INCHIKEY>  (52) 
GPZHQNYVDQMZDP-UHFFFAOYSA-N

$$$$
Arg-al
     RDKit          2D

 11 10  0  0  0  0  0  0  0  0999 V2000
    2.8941   -1.5462    0.0000 N   0  0  0  0  0  0  0  0  0  0  0  0
    2.7369   -0.0545    0.0000 C   0  0  0  0  0  0  0  0  0  0  0  0
    3.9503    0.8275    0.0000 C   0  0  0  0  0  0  0  0  0  0  0  0
    5.3207    0.2177    0.0000 O   0  0  0  0  0  0  0  0  0  0  0  0
    1.3665    0.5553    0.0000 C   0  0  0  0  0  0  0  0  0  0  0  0
    0.1532   -0.3267    0.0000 C   0  0  0  0  0  0  0  0  0  0  0  0
   -1.2173    0.2831    0.0000 C   0  0  0  0  0  0  0  0  0  0  0  0
   -2.4306   -0.5988    0.0000 N   0  0  0  0  0  0  0  0  0  0  0  0
   -3.8011    0.0110    0.0000 C   0  0  0  0  0  0  0  0  0  0  0  0
   -3.9582    1.5027    0.0000 N   0  0  0  0  0  0  0  0  0  0  0  0
   -5.0144   -0.8710    0.0000 N   0  0  0  0  0  0  0  0  0  0  0  0
  2  1  1  1
  2  3  1  0
  3  4  2  0
  2  5  1  0
  5  6  1  0
  6  7  1  0
  7  8  1  0
  8  9  1  0
  9 10  2  0
  9 11  1  0
M  END
>  <rName>  (53) 
Arg-al

>  <PQ_SYMBOL>  (53) 
Arg-al

>  <FULL_NAME>  (53) 
2-[(4S)-4-amino-5-oxopentyl]guanidine

>  <IUPAC_CONDENSED>  (53) 
Arg-al

>  <IUPAC>  (53) 
(2S)-2-amino-5-(((amino)(imino)methyl)amino)pentanal

>  <TYPE>  (53) 
C-term cap

>  <CLASS>  (53) 
c_cap

>  <ANALOG>  (53) 
X

>  <MOL_WT>  (53) 
158.205

>  <LOGP>  (53) 
-1.2241299999999988

>  <TPSA>  (53) 
104.99

>  <POPULARITY>  (53) 
30.7

>  <PROTECTED>  (53) 
FALSE

>  <SMILES>  (53) 
N[C@H](C=O)CCCNC(=N)N

>  <INCHIKEY>  (53) 
QJYRUYURLPTHLR-YFKPBYRVSA-N

$$$$
aMePhe-OMe
     RDKit          2D

 14 14  0  0  0  0  0  0  0  0999 V2000
    0.0372   -1.5408    0.0000 N   0  0  0  0  0  0  0  0  0  0  0  0
   -1.1464   -0.6193    0.0000 C   0  0  0  0  0  0  0  0  0  0  0  0
   -2.0678   -1.8029    0.0000 C   0  0  0  0  0  0  0  0  0  0  0  0
   -2.3300    0.3021    0.0000 C   0  0  0  0  0  0  0  0  0  0  0  0
   -2.1239    1.7879    0.0000 O   0  0  0  0  0  0  0  0  0  0  0  0
   -3.7198   -0.2622    0.0000 O   0  0  0  0  0  0  0  0  0  0  0  0
   -4.9035    0.6592    0.0000 C   0  0  0  0  0  0  0  0  0  0  0  0
   -0.2250    0.5643    0.0000 C   0  0  0  0  0  0  0  0  0  0  0  0
    1.2608    0.3581    0.0000 C   0  0  0  0  0  0  0  0  0  0  0  0
    1.8251   -1.0317    0.0000 C   0  0  0  0  0  0  0  0  0  0  0  0
    3.3109   -1.2378    0.0000 C   0  0  0  0  0  0  0  0  0  0  0  0
    4.2323   -0.0542    0.0000 C   0  0  0  0  0  0  0  0  0  0  0  0
    3.6680    1.3356    0.0000 C   0  0  0  0  0  0  0  0  0  0  0  0
    2.1822    1.5418    0.0000 C   0  0  0  0  0  0  0  0  0  0  0  0
  1  2  1  0
  2  3  1  1
  2  4  1  0
  4  5  2  0
  4  6  1  0
  6  7  1  0
  2  8  1  0
  8  9  1  0
  9 10  2  0
 10 11  1  0
 11 12  2  0
 12 13  1  0
 13 14  2  0
 14  9  1  0
M  END
>  <rName>  (54) 
aMePhe-OMe

>  <PQ_SYMBOL>  (54) 
aMePhe-OMe

>  <FULL_NAME>  (54) 
methyl (2S)-2-amino-2-methyl-3-phenylpropanoate

>  <IUPAC_CONDENSED>  (54) 
aMePhe-OMe

>  <IUPAC>  (54) 
methyl (2S)-2-amino-2-benzylpropanoate

>  <TYPE>  (54) 
C-term cap

>  <CLASS>  (54) 
c_cap

>  <ANALOG>  (54) 
X

>  <MOL_WT>  (54) 
193.246

>  <LOGP>  (54) 
1.1194999999999993

>  <TPSA>  (54) 
52.32000000000001

>  <POPULARITY>  (54) 
10.6

>  <PROTECTED>  (54) 
TRUE

>  <SMILES>  (54) 
N[C@](C)(C(=O)OC)Cc1ccccc1

>  <INCHIKEY>  (54) 
DAOFJPZFGBKAMZ-NSHDSACASA-N

$$$$
NBn-Nle
     RDKit          2D

 16 16  0  0  0  0  0  0  0  0999 V2000
    0.0065    0.4296    0.0000 N   0  0  0  0  0  0  0  0  0  0  0  0
    1.1254   -0.5695    0.0000 C   0  0  0  0  0  0  0  0  0  0  0  0
    2.5500   -0.1001    0.0000 C   0  0  0  0  0  0  0  0  0  0  0  0
    2.8558    1.3684    0.0000 C   0  0  0  0  0  0  0  0  0  0  0  0
    4.2805    1.8378    0.0000 C   0  0  0  0  0  0  0  0  0  0  0  0
    5.3994    0.8387    0.0000 C   0  0  0  0  0  0  0  0  0  0  0  0
    5.0935   -0.6298    0.0000 C   0  0  0  0  0  0  0  0  0  0  0  0
    3.6689   -1.0992    0.0000 C   0  0  0  0  0  0  0  0  0  0  0  0
   -1.4181   -0.0398    0.0000 C   0  0  0  0  0  0  0  0  0  0  0  0
   -2.5370    0.9592    0.0000 C   0  0  0  0  0  0  0  0  0  0  0  0
   -3.9616    0.4898    0.0000 C   0  0  0  0  0  0  0  0  0  0  0  0
   -5.0805    1.4889    0.0000 C   0  0  0  0  0  0  0  0  0  0  0  0
   -6.5052    1.0195    0.0000 C   0  0  0  0  0  0  0  0  0  0  0  0
   -1.7239   -1.5083    0.0000 C   0  0  0  0  0  0  0  0  0  0  0  0
   -0.6051   -2.5074    0.0000 O   0  0  0  0  0  0  0  0  0  0  0  0
   -3.1486   -1.9778    0.0000 O   0  0  0  0  0  0  0  0  0  0  0  0
  1  2  1  0
  2  3  1  0
  3  4  2  0
  4  5  1  0
  5  6  2  0
  6  7  1  0
  7  8  2  0
  1  9  1  0
  9 10  1  6
 10 11  1  0
 11 12  1  0
 12 13  1  0
  9 14  1  0
 14 15  2  0
 14 16  1  0
  8  3  1  0
M  END
>  <rName>  (55) 
NBn-Nle

>  <PQ_SYMBOL>  (55) 
NBn-Nle

>  <FULL_NAME>  (55) 
(2S)-2-(benzylamino)hexanoic acid

>  <IUPAC_CONDENSED>  (55) 
Bn-Nle

>  <IUPAC>  (55) 
(2S)-2-(benzylamino)hexanoic acid

>  <TYPE>  (55) 
N-term cap

>  <CLASS>  (55) 
n_cap

>  <ANALOG>  (55) 
X

>  <MOL_WT>  (55) 
221.29999999999993

>  <LOGP>  (55) 
2.4196

>  <TPSA>  (55) 
49.33

>  <POPULARITY>  (55) 
11.5

>  <PROTECTED>  (55) 
TRUE

>  <SMILES>  (55) 
N(Cc1(ccccc1))[C@@H](CCCC)C(=O)O

>  <INCHIKEY>  (55) 
HQDXZMGISBZJCQ-LBPRGKRZSA-N

$$$$
Bes-Leu
     RDKit          2D

 18 18  0  0  0  0  0  0  0  0999 V2000
    4.9866   -0.8004    0.0000 C   0  0  0  0  0  0  0  0  0  0  0  0
    3.7992   -1.7170    0.0000 C   0  0  0  0  0  0  0  0  0  0  0  0
    2.4117   -1.1469    0.0000 C   0  0  0  0  0  0  0  0  0  0  0  0
    2.2117    0.3397    0.0000 C   0  0  0  0  0  0  0  0  0  0  0  0
    3.3991    1.2562    0.0000 C   0  0  0  0  0  0  0  0  0  0  0  0
    4.7866    0.6862    0.0000 C   0  0  0  0  0  0  0  0  0  0  0  0
    0.8242    0.9097    0.0000 S   0  0  0  0  0  0  0  0  0  0  0  0
    1.3943    2.2972    0.0000 O   0  0  0  0  0  0  0  0  0  0  0  0
    0.2542   -0.4777    0.0000 O   0  0  0  0  0  0  0  0  0  0  0  0
   -0.5632    1.4798    0.0000 N   0  0  0  0  0  0  0  0  0  0  0  0
   -1.7506    0.5632    0.0000 C   0  0  0  0  0  0  0  0  0  0  0  0
   -3.1381    1.1333    0.0000 C   0  0  0  0  0  0  0  0  0  0  0  0
   -4.3255    0.2167    0.0000 C   0  0  0  0  0  0  0  0  0  0  0  0
   -5.7130    0.7868    0.0000 C   0  0  0  0  0  0  0  0  0  0  0  0
   -4.1255   -1.2699    0.0000 C   0  0  0  0  0  0  0  0  0  0  0  0
   -1.5506   -0.9234    0.0000 C   0  0  0  0  0  0  0  0  0  0  0  0
   -0.1631   -1.4934    0.0000 O   0  0  0  0  0  0  0  0  0  0  0  0
   -2.7380   -1.8399    0.0000 O   0  0  0  0  0  0  0  0  0  0  0  0
  1  2  2  0
  2  3  1  0
  3  4  2  0
  4  5  1  0
  5  6  2  0
  4  7  1  0
  7  8  2  0
  7  9  2  0
  7 10  1  0
 10 11  1  0
 11 12  1  6
 12 13  1  0
 13 14  1  0
 13 15  1  0
 11 16  1  0
 16 17  2  0
 16 18  1  0
  6  1  1  0
M  END
>  <rName>  (56) 
Bes-Leu

>  <PQ_SYMBOL>  (56) 
Bes-Leu

>  <FULL_NAME>  (56) 
(2S)-2-(benzenesulfonamido)-4-methylpentanoic acid

>  <IUPAC_CONDENSED>  (56) 
Bes-Leu

>  <IUPAC>  (56) 
(2S)-4-methyl-2-phenylsulfonylaminopentanoic acid

>  <TYPE>  (56) 
N-term cap

>  <CLASS>  (56) 
n_cap

>  <ANALOG>  (56) 
X

>  <MOL_WT>  (56) 
271.33799999999997

>  <LOGP>  (56) 
1.4642000000000002

>  <TPSA>  (56) 
83.47

>  <POPULARITY>  (56) 
9.6

>  <PROTECTED>  (56) 
TRUE

>  <SMILES>  (56) 
c1ccc(cc1)S(=O)(=O)N[C@@H](CC(C)C)C(=O)O

>  <INCHIKEY>  (56) 
FLJPDKBVKGRHQC-NSHDSACASA-N

$$$$
Me-D-Ala-OMe
     RDKit          2D

  8  7  0  0  0  0  0  0  0  0999 V2000
    2.1094   -0.1242    0.0000 N   0  0  0  0  0  0  0  0  0  0  0  0
    2.2639    1.3678    0.0000 C   0  0  0  0  0  0  0  0  0  0  0  0
    0.7400   -0.7364    0.0000 C   0  0  0  0  0  0  0  0  0  0  0  0
    0.5855   -2.2284    0.0000 C   0  0  0  0  0  0  0  0  0  0  0  0
   -0.4749    0.1434    0.0000 C   0  0  0  0  0  0  0  0  0  0  0  0
   -0.3204    1.6355    0.0000 O   0  0  0  0  0  0  0  0  0  0  0  0
   -1.8443   -0.4688    0.0000 O   0  0  0  0  0  0  0  0  0  0  0  0
   -3.0591    0.4111    0.0000 C   0  0  0  0  0  0  0  0  0  0  0  0
  1  2  1  0
  1  3  1  0
  3  4  1  6
  3  5  1  0
  5  6  2  0
  5  7  1  0
  7  8  1  0
M  END
>  <rName>  (57) 
Me-D-Ala-OMe

>  <PQ_SYMBOL>  (57) 
Me-D-Ala-OMe

>  <FULL_NAME>  (57) 
methyl (2R)-2-(methylamino)propanoate

>  <IUPAC_CONDENSED>  (57) 
Me-D-Ala-OMe

>  <IUPAC>  (57) 
methyl (2R)-2-(methylamino)propanoate

>  <TYPE>  (57) 
C-term cap

>  <CLASS>  (57) 
c_cap

>  <ANALOG>  (57) 
X

>  <MOL_WT>  (57) 
117.14799999999998

>  <LOGP>  (57) 
-0.23270000000000035

>  <TPSA>  (57) 
38.33

>  <POPULARITY>  (57) 
14.8

>  <PROTECTED>  (57) 
TRUE

>  <SMILES>  (57) 
N(C)[C@H](C)C(=O)OC

>  <INCHIKEY>  (57) 
PQIUHUKRJAOTLS-SCSAIBSYSA-N

$$$$
His-OEt
     RDKit          2D

 13 13  0  0  0  0  0  0  0  0999 V2000
   -0.1895    1.5333    0.0000 N   0  0  0  0  0  0  0  0  0  0  0  0
   -0.4221    0.0515    0.0000 C   0  0  0  0  0  0  0  0  0  0  0  0
   -1.8218   -0.4879    0.0000 C   0  0  0  0  0  0  0  0  0  0  0  0
   -2.0545   -1.9698    0.0000 O   0  0  0  0  0  0  0  0  0  0  0  0
   -2.9888    0.4545    0.0000 O   0  0  0  0  0  0  0  0  0  0  0  0
   -4.3884   -0.0849    0.0000 C   0  0  0  0  0  0  0  0  0  0  0  0
   -5.5554    0.8575    0.0000 C   0  0  0  0  0  0  0  0  0  0  0  0
    0.7448   -0.8909    0.0000 C   0  0  0  0  0  0  0  0  0  0  0  0
    2.1445   -0.3515    0.0000 C   0  0  0  0  0  0  0  0  0  0  0  0
    3.4036   -1.1668    0.0000 C   0  0  0  0  0  0  0  0  0  0  0  0
    4.5680   -0.2213    0.0000 N   0  0  0  0  0  0  0  0  0  0  0  0
    4.0286    1.1784    0.0000 C   0  0  0  0  0  0  0  0  0  0  0  0
    2.5308    1.0979    0.0000 N   0  0  0  0  0  0  0  0  0  0  0  0
  2  1  1  1
  2  3  1  0
  3  4  2  0
  3  5  1  0
  5  6  1  0
  6  7  1  0
  2  8  1  0
  8  9  1  0
  9 10  2  0
 10 11  1  0
 11 12  1  0
 12 13  2  0
 13  9  1  0
M  END
>  <rName>  (58) 
His-OEt

>  <PQ_SYMBOL>  (58) 
His-OEt

>  <FULL_NAME>  (58) 
ethyl (2S)-2-amino-3-(1H-imidazol-5-yl)propanoate

>  <IUPAC_CONDENSED>  (58) 
His-OEt

>  <IUPAC>  (58) 
ethyl (2S)-2-amino-3-(1H-imidazol-4-yl)propanoate

>  <TYPE>  (58) 
C-term cap

>  <CLASS>  (58) 
c_cap

>  <ANALOG>  (58) 
X

>  <MOL_WT>  (58) 
183.21100000000004

>  <LOGP>  (58) 
-0.15740000000000037

>  <TPSA>  (58) 
81.00000000000001

>  <POPULARITY>  (58) 
6.7

>  <PROTECTED>  (58) 
TRUE

>  <SMILES>  (58) 
N[C@H](C(=O)OCC)Cc1c[nH]cn1

>  <INCHIKEY>  (58) 
ACHWEOLUTJAHLV-ZETCQYMHSA-N

$$$$
cyclen-1-acetyl
     RDKit          2D

 16 16  0  0  0  0  0  0  0  0999 V2000
   -4.1370   -0.7090    0.0000 N   0  0  0  0  0  0  0  0  0  0  0  0
   -4.1151    0.7908    0.0000 C   0  0  0  0  0  0  0  0  0  0  0  0
   -3.3462    2.0788    0.0000 C   0  0  0  0  0  0  0  0  0  0  0  0
   -2.0363    2.8097    0.0000 N   0  0  0  0  0  0  0  0  0  0  0  0
   -0.5365    2.7878    0.0000 C   0  0  0  0  0  0  0  0  0  0  0  0
    0.7515    2.0189    0.0000 C   0  0  0  0  0  0  0  0  0  0  0  0
    1.4824    0.7090    0.0000 N   0  0  0  0  0  0  0  0  0  0  0  0
    1.4605   -0.7908    0.0000 C   0  0  0  0  0  0  0  0  0  0  0  0
    0.6916   -2.0788    0.0000 C   0  0  0  0  0  0  0  0  0  0  0  0
   -0.6183   -2.8097    0.0000 N   0  0  0  0  0  0  0  0  0  0  0  0
   -2.1181   -2.7878    0.0000 C   0  0  0  0  0  0  0  0  0  0  0  0
   -3.4060   -2.0189    0.0000 C   0  0  0  0  0  0  0  0  0  0  0  0
    2.9368    1.0760    0.0000 C   0  0  0  0  0  0  0  0  0  0  0  0
    3.9819    0.0000    0.0000 C   0  0  0  0  0  0  0  0  0  0  0  0
    3.5725   -1.4431    0.0000 O   0  0  0  0  0  0  0  0  0  0  0  0
    5.4363    0.3670    0.0000 O   0  0  0  0  0  0  0  0  0  0  0  0
  1  2  1  0
  2  3  1  0
  3  4  1  0
  4  5  1  0
  5  6  1  0
  6  7  1  0
  7  8  1  0
  8  9  1  0
  9 10  1  0
 10 11  1  0
 11 12  1  0
  7 13  1  0
 13 14  1  0
 14 15  2  0
 14 16  1  0
 12  1  1  0
M  END
>  <rName>  (59) 
cyclen-1-acetyl

>  <PQ_SYMBOL>  (59) 
cyclen-1-acetyl

>  <FULL_NAME>  (59) 
2-(1,4,7,10-tetrazacyclododec-1-yl)acetic acid

>  <IUPAC_CONDENSED>  (59) 
cyclen-1-acetyl

>  <IUPAC>  (59) 
2-(1,4,7,10-tetraazacyclododecan-1-yl)acetic acid

>  <TYPE>  (59) 
N-term cap

>  <CLASS>  (59) 
n_cap

>  <ANALOG>  (59) 
X

>  <MOL_WT>  (59) 
230.31199999999998

>  <LOGP>  (59) 
-1.8445999999999954

>  <TPSA>  (59) 
76.63

>  <POPULARITY>  (59) 
10.2

>  <PROTECTED>  (59) 
TRUE

>  <SMILES>  (59) 
N1CCNCCN(CCNCC1)CC(=O)O

>  <INCHIKEY>  (59) 
XDLOGHYCUQYEKA-UHFFFAOYSA-N

$$$$
Ala-OBu
     RDKit          2D

 10  9  0  0  0  0  0  0  0  0999 V2000
    2.7402   -1.8571    0.0000 N   0  0  0  0  0  0  0  0  0  0  0  0
    2.7304   -0.3571    0.0000 C   0  0  0  0  0  0  0  0  0  0  0  0
    4.0245    0.4014    0.0000 C   0  0  0  0  0  0  0  0  0  0  0  0
    1.4265    0.3844    0.0000 C   0  0  0  0  0  0  0  0  0  0  0  0
    1.4166    1.8843    0.0000 O   0  0  0  0  0  0  0  0  0  0  0  0
    0.1324   -0.3741    0.0000 O   0  0  0  0  0  0  0  0  0  0  0  0
   -1.1716    0.3673    0.0000 C   0  0  0  0  0  0  0  0  0  0  0  0
   -2.4657   -0.3912    0.0000 C   0  0  0  0  0  0  0  0  0  0  0  0
   -3.7696    0.3503    0.0000 C   0  0  0  0  0  0  0  0  0  0  0  0
   -5.0637   -0.4082    0.0000 C   0  0  0  0  0  0  0  0  0  0  0  0
  1  2  1  0
  2  3  1  6
  2  4  1  0
  4  5  2  0
  4  6  1  0
  6  7  1  0
  7  8  1  0
  8  9  1  0
  9 10  1  0
M  END
>  <rName>  (60) 
Ala-OBu

>  <PQ_SYMBOL>  (60) 
Ala-OBu

>  <FULL_NAME>  (60) 
butyl (2S)-2-aminopropanoate

>  <IUPAC_CONDENSED>  (60) 
Ala-OBu

>  <IUPAC>  (60) 
butyl (2S)-2-aminopropanoate

>  <TYPE>  (60) 
C-term cap

>  <CLASS>  (60) 
c_cap

>  <ANALOG>  (60) 
X

>  <MOL_WT>  (60) 
145.20199999999997

>  <LOGP>  (60) 
0.6768999999999996

>  <TPSA>  (60) 
52.32000000000001

>  <POPULARITY>  (60) 
15

>  <PROTECTED>  (60) 
TRUE

>  <SMILES>  (60) 
N[C@@H](C)C(=O)OCCCC

>  <INCHIKEY>  (60) 
RJJXSCQQRYCPLW-LURJTMIESA-N

$$$$
-D-Ac3c_2Svinyl
     RDKit          2D

  9  9  0  0  0  0  0  0  0  0999 V2000
   -2.3058    0.6435    0.0000 N   0  0  0  0  0  0  0  0  0  0  0  0
   -0.8074    0.5739    0.0000 C   0  0  0  0  0  0  0  0  0  0  0  0
   -0.6157   -0.9138    0.0000 C   0  0  0  0  0  0  0  0  0  0  0  0
    0.7685   -1.4916    0.0000 O   0  0  0  0  0  0  0  0  0  0  0  0
   -1.8082   -1.8236    0.0000 O   0  0  0  0  0  0  0  0  0  0  0  0
    0.6244    1.0211    0.0000 C   0  0  0  0  0  0  0  0  0  0  0  0
   -0.4787    2.0375    0.0000 C   0  0  0  0  0  0  0  0  0  0  0  0
    2.0879    0.6924    0.0000 C   0  0  0  0  0  0  0  0  0  0  0  0
    2.5351   -0.7394    0.0000 C   0  0  0  0  0  0  0  0  0  0  0  0
  2  1  1  6
  2  3  1  0
  3  4  2  0
  3  5  1  0
  2  6  1  0
  6  7  1  0
  6  8  1  1
  8  9  2  0
  7  2  1  0
M  END
>  <rName>  (61) 
-D-Ac3c_2Svinyl

>  <PQ_SYMBOL>  (61) 
-D-Ac3c_2Svinyl

>  <FULL_NAME>  (61) 
(1R,2S)-1-amino-2-ethenylcyclopropane-1-carboxylic acid

>  <IUPAC_CONDENSED>  (61) 
D-Ac3c(2S-vinyl)

>  <IUPAC>  (61) 
(1R,2S)-1-amino-2-ethenylcyclopropanecarboxylic acid

>  <TYPE>  (61) 
C-term cap

>  <CLASS>  (61) 
c_cap

>  <ANALOG>  (61) 
X

>  <MOL_WT>  (61) 
127.14299999999999

>  <LOGP>  (61) 
-0.02560000000000029

>  <TPSA>  (61) 
63.32000000000001

>  <POPULARITY>  (61) 
18.7

>  <PROTECTED>  (61) 
TRUE

>  <SMILES>  (61) 
N[C@@]1(C(=O)O)[C@@H](C1)C=C

>  <INCHIKEY>  (61) 
GALLMPFNVWUCGD-INEUFUBQSA-N

$$$$
Phg_3Cl-
     RDKit          2D

 12 12  0  0  0  0  0  0  0  0999 V2000
   -1.5885   -2.1920    0.0000 N   0  0  0  0  0  0  0  0  0  0  0  0
   -1.3991   -0.7040    0.0000 C   0  0  0  0  0  0  0  0  0  0  0  0
   -0.0158   -0.1240    0.0000 C   0  0  0  0  0  0  0  0  0  0  0  0
    0.1736    1.3640    0.0000 C   0  0  0  0  0  0  0  0  0  0  0  0
    1.5569    1.9440    0.0000 C   0  0  0  0  0  0  0  0  0  0  0  0
    2.7509    1.0360    0.0000 C   0  0  0  0  0  0  0  0  0  0  0  0
    2.5615   -0.4520    0.0000 C   0  0  0  0  0  0  0  0  0  0  0  0
    3.7555   -1.3600    0.0000 Cl  0  0  0  0  0  0  0  0  0  0  0  0
    1.1782   -1.0320    0.0000 C   0  0  0  0  0  0  0  0  0  0  0  0
   -2.5931    0.2040    0.0000 C   0  0  0  0  0  0  0  0  0  0  0  0
   -2.4037    1.6920    0.0000 O   0  0  0  0  0  0  0  0  0  0  0  0
   -3.9764   -0.3760    0.0000 O   0  0  0  0  0  0  0  0  0  0  0  0
  2  1  1  6
  2  3  1  0
  3  4  2  0
  4  5  1  0
  5  6  2  0
  6  7  1  0
  7  8  1  0
  7  9  2  0
  2 10  1  0
 10 11  2  0
 10 12  1  0
  9  3  1  0
M  END
>  <rName>  (62) 
Phg_3Cl-

>  <PQ_SYMBOL>  (62) 
Phg_3Cl-

>  <FULL_NAME>  (62) 
3-Chlorophenylglycine

>  <IUPAC_CONDENSED>  (62) 
Phg(3-Cl)

>  <IUPAC>  (62) 
(2S)-2-amino-2-(3-chlorophenyl)acetic acid

>  <TYPE>  (62) 
N-term cap

>  <CLASS>  (62) 
n_cap

>  <ANALOG>  (62) 
X

>  <MOL_WT>  (62) 
185.60999999999999

>  <LOGP>  (62) 
1.4244

>  <TPSA>  (62) 
63.32000000000001

>  <POPULARITY>  (62) 
10.1

>  <PROTECTED>  (62) 
TRUE

>  <SMILES>  (62) 
N[C@@H](c1(cccc(Cl)c1))C(=O)O

>  <INCHIKEY>  (62) 
MGOUENCSVMAGSE-ZETCQYMHSA-N

$$$$
Met-OEt
     RDKit          2D

 11 10  0  0  0  0  0  0  0  0999 V2000
   -0.1663    1.8372    0.0000 N   0  0  0  0  0  0  0  0  0  0  0  0
   -0.1270    0.3377    0.0000 C   0  0  0  0  0  0  0  0  0  0  0  0
    1.1913   -0.3780    0.0000 C   0  0  0  0  0  0  0  0  0  0  0  0
    1.2306   -1.8775    0.0000 O   0  0  0  0  0  0  0  0  0  0  0  0
    2.4702    0.4058    0.0000 O   0  0  0  0  0  0  0  0  0  0  0  0
    3.7884   -0.3099    0.0000 C   0  0  0  0  0  0  0  0  0  0  0  0
    5.0674    0.4739    0.0000 C   0  0  0  0  0  0  0  0  0  0  0  0
   -1.4059   -0.4461    0.0000 C   0  0  0  0  0  0  0  0  0  0  0  0
   -2.7242    0.2696    0.0000 C   0  0  0  0  0  0  0  0  0  0  0  0
   -4.0031   -0.5142    0.0000 S   0  0  0  0  0  0  0  0  0  0  0  0
   -5.3214    0.2015    0.0000 C   0  0  0  0  0  0  0  0  0  0  0  0
  2  1  1  6
  2  3  1  0
  3  4  2  0
  3  5  1  0
  5  6  1  0
  6  7  1  0
  2  8  1  0
  8  9  1  0
  9 10  1  0
 10 11  1  0
M  END
>  <rName>  (63) 
Met-OEt

>  <PQ_SYMBOL>  (63) 
Met-OEt

>  <FULL_NAME>  (63) 
ethyl (2S)-2-amino-4-methylsulfanylbutanoate

>  <IUPAC_CONDENSED>  (63) 
Met-OEt

>  <IUPAC>  (63) 
ethyl (2S)-2-amino-4-(methylsulfanyl)butanoate

>  <TYPE>  (63) 
C-term cap

>  <CLASS>  (63) 
c_cap

>  <ANALOG>  (63) 
X

>  <MOL_WT>  (63) 
177.269

>  <LOGP>  (63) 
0.6298999999999999

>  <TPSA>  (63) 
52.32000000000001

>  <POPULARITY>  (63) 
9.5

>  <PROTECTED>  (63) 
TRUE

>  <SMILES>  (63) 
N[C@H](C(=O)OCC)CCSC

>  <INCHIKEY>  (63) 
ARJXIGOIOGJAKR-LURJTMIESA-N

$$$$
Gly-CF3
     RDKit          2D

  8  7  0  0  0  0  0  0  0  0999 V2000
    2.9299    0.3147    0.0000 N   0  0  0  0  0  0  0  0  0  0  0  0
    1.4922    0.7422    0.0000 C   0  0  0  0  0  0  0  0  0  0  0  0
    0.4030   -0.2892    0.0000 C   0  0  0  0  0  0  0  0  0  0  0  0
    0.7517   -1.7482    0.0000 O   0  0  0  0  0  0  0  0  0  0  0  0
   -1.0348    0.1383    0.0000 C   0  0  0  0  0  0  0  0  0  0  0  0
   -2.4726    0.5658    0.0000 F   0  0  0  0  0  0  0  0  0  0  0  0
   -1.4623   -1.2995    0.0000 F   0  0  0  0  0  0  0  0  0  0  0  0
   -0.6073    1.5761    0.0000 F   0  0  0  0  0  0  0  0  0  0  0  0
  1  2  1  0
  2  3  1  0
  3  4  2  0
  3  5  1  0
  5  6  1  0
  5  7  1  0
  5  8  1  0
M  END
>  <rName>  (64) 
Gly-CF3

>  <PQ_SYMBOL>  (64) 
Gly-CF3

>  <FULL_NAME>  (64) 
3-amino-1,1,1-trifluoropropan-2-one

>  <IUPAC_CONDENSED>  (64) 
Gly-CF3

>  <IUPAC>  (64) 
1-amino-3,3,3-trifluoropropan-2-one

>  <TYPE>  (64) 
C-term cap

>  <CLASS>  (64) 
c_cap

>  <ANALOG>  (64) 
X

>  <MOL_WT>  (64) 
127.06500000000001

>  <LOGP>  (64) 
0.07650000000000001

>  <TPSA>  (64) 
43.09

>  <POPULARITY>  (64) 
11.2

>  <PROTECTED>  (64) 
TRUE

>  <SMILES>  (64) 
NCC(=O)C(F)(F)F

>  <INCHIKEY>  (64) 
OXSMZTRDGVTACF-UHFFFAOYSA-N

$$$$
D-Phe-OMe
     RDKit          2D

 13 13  0  0  0  0  0  0  0  0999 V2000
   -0.8522    1.6213    0.0000 N   0  0  0  0  0  0  0  0  0  0  0  0
   -1.1939    0.1607    0.0000 C   0  0  0  0  0  0  0  0  0  0  0  0
   -2.6296   -0.2737    0.0000 C   0  0  0  0  0  0  0  0  0  0  0  0
   -2.9712   -1.7343    0.0000 O   0  0  0  0  0  0  0  0  0  0  0  0
   -3.7237    0.7525    0.0000 O   0  0  0  0  0  0  0  0  0  0  0  0
   -5.1594    0.3180    0.0000 C   0  0  0  0  0  0  0  0  0  0  0  0
   -0.0998   -0.8654    0.0000 C   0  0  0  0  0  0  0  0  0  0  0  0
    1.3359   -0.4310    0.0000 C   0  0  0  0  0  0  0  0  0  0  0  0
    1.6775    1.0296    0.0000 C   0  0  0  0  0  0  0  0  0  0  0  0
    3.1133    1.4640    0.0000 C   0  0  0  0  0  0  0  0  0  0  0  0
    4.2073    0.4379    0.0000 C   0  0  0  0  0  0  0  0  0  0  0  0
    3.8657   -1.0227    0.0000 C   0  0  0  0  0  0  0  0  0  0  0  0
    2.4300   -1.4571    0.0000 C   0  0  0  0  0  0  0  0  0  0  0  0
  2  1  1  6
  2  3  1  0
  3  4  2  0
  3  5  1  0
  5  6  1  0
  2  7  1  0
  7  8  1  0
  8  9  2  0
  9 10  1  0
 10 11  2  0
 11 12  1  0
 12 13  2  0
 13  8  1  0
M  END
>  <rName>  (65) 
D-Phe-OMe

>  <PQ_SYMBOL>  (65) 
D-Phe-OMe

>  <FULL_NAME>  (65) 
D-Phenylalanine methyl ester

>  <IUPAC_CONDENSED>  (65) 
D-Phe-OMe

>  <IUPAC>  (65) 
methyl (2R)-2-amino-3-phenylpropanoate

>  <TYPE>  (65) 
C-term cap

>  <CLASS>  (65) 
c_cap

>  <ANALOG>  (65) 
X

>  <MOL_WT>  (65) 
179.21900000000002

>  <LOGP>  (65) 
0.7293999999999992

>  <TPSA>  (65) 
52.32000000000001

>  <POPULARITY>  (65) 
9.5

>  <PROTECTED>  (65) 
TRUE

>  <SMILES>  (65) 
N[C@@H](C(=O)OC)Cc1ccccc1

>  <INCHIKEY>  (65) 
VSDUZFOSJDMAFZ-SECBINFHSA-N

$$$$
Leu-al
     RDKit          2D

  8  7  0  0  0  0  0  0  0  0999 V2000
    0.7931   -1.4169    0.0000 N   0  0  0  0  0  0  0  0  0  0  0  0
    0.8131    0.0829    0.0000 C   0  0  0  0  0  0  0  0  0  0  0  0
    2.1220    0.8156    0.0000 C   0  0  0  0  0  0  0  0  0  0  0  0
    3.4109    0.0483    0.0000 O   0  0  0  0  0  0  0  0  0  0  0  0
   -0.4759    0.8502    0.0000 C   0  0  0  0  0  0  0  0  0  0  0  0
   -1.7848    0.1175    0.0000 C   0  0  0  0  0  0  0  0  0  0  0  0
   -3.0737    0.8848    0.0000 C   0  0  0  0  0  0  0  0  0  0  0  0
   -1.8048   -1.3823    0.0000 C   0  0  0  0  0  0  0  0  0  0  0  0
  2  1  1  1
  2  3  1  0
  3  4  2  0
  2  5  1  0
  5  6  1  0
  6  7  1  0
  6  8  1  0
M  END
>  <rName>  (66) 
Leu-al

>  <PQ_SYMBOL>  (66) 
Leu-al

>  <FULL_NAME>  (66) 
(2S)-2-amino-4-methylpentanal

>  <IUPAC_CONDENSED>  (66) 
Leu-al

>  <IUPAC>  (66) 
(2S)-2-amino-4-methylpentanal

>  <TYPE>  (66) 
C-term cap

>  <CLASS>  (66) 
c_cap

>  <ANALOG>  (66) 
X

>  <MOL_WT>  (66) 
115.17599999999999

>  <LOGP>  (66) 
0.5586999999999998

>  <TPSA>  (66) 
43.09

>  <POPULARITY>  (66) 
26.7

>  <PROTECTED>  (66) 
TRUE

>  <SMILES>  (66) 
N[C@H](C=O)CC(C)C

>  <INCHIKEY>  (66) 
ZOFRRNUENOHELM-LURJTMIESA-N

$$$$
Phe-CH2Cl
     RDKit          2D

 13 13  0  0  0  0  0  0  0  0999 V2000
   -0.8522    1.6213    0.0000 N   0  0  0  0  0  0  0  0  0  0  0  0
   -1.1939    0.1607    0.0000 C   0  0  0  0  0  0  0  0  0  0  0  0
   -2.6296   -0.2737    0.0000 C   0  0  0  0  0  0  0  0  0  0  0  0
   -2.9712   -1.7343    0.0000 O   0  0  0  0  0  0  0  0  0  0  0  0
   -3.7237    0.7525    0.0000 C   0  0  0  0  0  0  0  0  0  0  0  0
   -5.1594    0.3180    0.0000 Cl  0  0  0  0  0  0  0  0  0  0  0  0
   -0.0998   -0.8654    0.0000 C   0  0  0  0  0  0  0  0  0  0  0  0
    1.3359   -0.4310    0.0000 C   0  0  0  0  0  0  0  0  0  0  0  0
    1.6775    1.0296    0.0000 C   0  0  0  0  0  0  0  0  0  0  0  0
    3.1133    1.4640    0.0000 C   0  0  0  0  0  0  0  0  0  0  0  0
    4.2073    0.4379    0.0000 C   0  0  0  0  0  0  0  0  0  0  0  0
    3.8657   -1.0227    0.0000 C   0  0  0  0  0  0  0  0  0  0  0  0
    2.4300   -1.4571    0.0000 C   0  0  0  0  0  0  0  0  0  0  0  0
  2  1  1  1
  2  3  1  0
  3  4  2  0
  3  5  1  0
  5  6  1  0
  2  7  1  0
  7  8  1  0
  8  9  2  0
  9 10  1  0
 10 11  2  0
 11 12  1  0
 12 13  2  0
 13  8  1  0
M  END
>  <rName>  (67) 
Phe-CH2Cl

>  <PQ_SYMBOL>  (67) 
Phe-CH2Cl

>  <FULL_NAME>  (67) 
Phenylalanine chloromethyl

>  <IUPAC_CONDENSED>  (67) 
Phe-CH2Cl

>  <IUPAC>  (67) 
(3S)-3-amino-1-chloro-4-phenylbutan-2-one

>  <TYPE>  (67) 
C-term cap

>  <CLASS>  (67) 
c_cap

>  <ANALOG>  (67) 
X

>  <MOL_WT>  (67) 
197.66500000000005

>  <LOGP>  (67) 
1.3643

>  <TPSA>  (67) 
43.09

>  <POPULARITY>  (67) 
16.9

>  <PROTECTED>  (67) 
TRUE

>  <SMILES>  (67) 
N[C@H](C(=O)CCl)Cc1ccccc1

>  <INCHIKEY>  (67) 
CNNSBPMDYXZFTQ-VIFPVBQESA-N

$$$$
Trp-OMe
     RDKit          2D

 16 17  0  0  0  0  0  0  0  0999 V2000
   -2.1653    1.8088    0.0000 N   0  0  0  0  0  0  0  0  0  0  0  0
   -2.1524    0.3088    0.0000 C   0  0  0  0  0  0  0  0  0  0  0  0
   -3.4449   -0.4523    0.0000 C   0  0  0  0  0  0  0  0  0  0  0  0
   -3.4321   -1.9523    0.0000 O   0  0  0  0  0  0  0  0  0  0  0  0
   -4.7504    0.2865    0.0000 O   0  0  0  0  0  0  0  0  0  0  0  0
   -6.0429   -0.4746    0.0000 C   0  0  0  0  0  0  0  0  0  0  0  0
   -0.8470   -0.4300    0.0000 C   0  0  0  0  0  0  0  0  0  0  0  0
    0.4456    0.3311    0.0000 C   0  0  0  0  0  0  0  0  0  0  0  0
    1.8211   -0.2672    0.0000 C   0  0  0  0  0  0  0  0  0  0  0  0
    2.2969   -1.6898    0.0000 C   0  0  0  0  0  0  0  0  0  0  0  0
    3.7667   -1.9890    0.0000 C   0  0  0  0  0  0  0  0  0  0  0  0
    4.7608   -0.8657    0.0000 C   0  0  0  0  0  0  0  0  0  0  0  0
    4.2850    0.5568    0.0000 C   0  0  0  0  0  0  0  0  0  0  0  0
    2.8152    0.8561    0.0000 C   0  0  0  0  0  0  0  0  0  0  0  0
    2.0541    2.1486    0.0000 N   0  0  0  0  0  0  0  0  0  0  0  0
    0.5896    1.8242    0.0000 C   0  0  0  0  0  0  0  0  0  0  0  0
  2  1  1  1
  2  3  1  0
  3  4  2  0
  3  5  1  0
  5  6  1  0
  2  7  1  0
  7  8  1  0
  8  9  1  0
  9 10  2  0
 10 11  1  0
 11 12  2  0
 12 13  1  0
 13 14  2  0
 14 15  1  0
 15 16  1  0
 14  9  1  0
 16  8  2  0
M  END
>  <rName>  (68) 
Trp-OMe

>  <PQ_SYMBOL>  (68) 
Trp-OMe

>  <FULL_NAME>  (68) 
L-Tryptophan methyl ester

>  <IUPAC_CONDENSED>  (68) 
Trp-OMe

>  <IUPAC>  (68) 
methyl (2S)-2-amino-3-(1H-indol-3-yl)propanoate

>  <TYPE>  (68) 
C-term cap

>  <CLASS>  (68) 
c_cap

>  <ANALOG>  (68) 
X

>  <MOL_WT>  (68) 
218.25600000000003

>  <LOGP>  (68) 
1.2106999999999994

>  <TPSA>  (68) 
68.11000000000001

>  <POPULARITY>  (68) 
14.2

>  <PROTECTED>  (68) 
TRUE

>  <SMILES>  (68) 
N[C@H](C(=O)OC)Cc2c1ccccc1[nH]c2

>  <INCHIKEY>  (68) 
KCUNTYMNJVXYKZ-JTQLQIEISA-N

$$$$
Phe_2Meoxiranylketone
     RDKit          2D

 15 16  0  0  0  0  0  0  0  0999 V2000
   -0.4374    1.4008    0.0000 N   0  0  0  0  0  0  0  0  0  0  0  0
   -0.6717   -0.0808    0.0000 C   0  0  0  0  0  0  0  0  0  0  0  0
   -2.0720   -0.6186    0.0000 C   0  0  0  0  0  0  0  0  0  0  0  0
   -2.3064   -2.1001    0.0000 O   0  0  0  0  0  0  0  0  0  0  0  0
   -3.2379    0.3252    0.0000 C   0  0  0  0  0  0  0  0  0  0  0  0
   -4.6563    0.8133    0.0000 O   0  0  0  0  0  0  0  0  0  0  0  0
   -4.3698   -0.6591    0.0000 C   0  0  0  0  0  0  0  0  0  0  0  0
   -2.5109    1.6373    0.0000 C   0  0  0  0  0  0  0  0  0  0  0  0
    0.4942   -1.0245    0.0000 C   0  0  0  0  0  0  0  0  0  0  0  0
    1.8944   -0.4867    0.0000 C   0  0  0  0  0  0  0  0  0  0  0  0
    3.0603   -1.4305    0.0000 C   0  0  0  0  0  0  0  0  0  0  0  0
    4.4606   -0.8927    0.0000 C   0  0  0  0  0  0  0  0  0  0  0  0
    4.6950    0.5889    0.0000 C   0  0  0  0  0  0  0  0  0  0  0  0
    3.5291    1.5327    0.0000 C   0  0  0  0  0  0  0  0  0  0  0  0
    2.1288    0.9949    0.0000 C   0  0  0  0  0  0  0  0  0  0  0  0
  2  1  1  1
  2  3  1  0
  3  4  2  0
  3  5  1  0
  5  6  1  0
  6  7  1  0
  5  8  1  6
  2  9  1  0
  9 10  1  0
 10 11  2  0
 11 12  1  0
 12 13  2  0
 13 14  1  0
 14 15  2  0
 15 10  1  0
  7  5  1  0
M  END
>  <rName>  (69) 
Phe_2Meoxiranylketone

>  <PQ_SYMBOL>  (69) 
Phe_2Meoxiranylketone

>  <FULL_NAME>  (69) 
(2S)-2-amino-1-[(2R)-2-methyloxiran-2-yl]-3-phenylpropan-1-one

>  <IUPAC_CONDENSED>  (69) 
Phe(2Me-oxiranyl-ketone)

>  <IUPAC>  (69) 
(2S)-2-amino-1-((2R)-2-methyl-oxiran-2-yl)-3-phenylpropan-1-one

>  <TYPE>  (69) 
C-term cap

>  <CLASS>  (69) 
c_cap

>  <ANALOG>  (69) 
X

>  <MOL_WT>  (69) 
205.257

>  <LOGP>  (69) 
0.9143999999999992

>  <TPSA>  (69) 
55.620000000000005

>  <POPULARITY>  (69) 
11.4

>  <PROTECTED>  (69) 
TRUE

>  <SMILES>  (69) 
N[C@H](C(=O)[C@@]2(OC2)(C))Cc1ccccc1

>  <INCHIKEY>  (69) 
KWADEJYHBBQJTA-CMPLNLGQSA-N

$$$$
D-Trp-OBn
     RDKit          2D

 22 24  0  0  0  0  0  0  0  0999 V2000
    0.0709   -1.5459    0.0000 N   0  0  0  0  0  0  0  0  0  0  0  0
    0.2042   -0.0518    0.0000 C   0  0  0  0  0  0  0  0  0  0  0  0
    1.5648    0.5798    0.0000 C   0  0  0  0  0  0  0  0  0  0  0  0
    2.7920   -0.2827    0.0000 C   0  0  0  0  0  0  0  0  0  0  0  0
    2.8156   -1.7825    0.0000 C   0  0  0  0  0  0  0  0  0  0  0  0
    4.2493   -2.2235    0.0000 N   0  0  0  0  0  0  0  0  0  0  0  0
    5.1118   -0.9963    0.0000 C   0  0  0  0  0  0  0  0  0  0  0  0
    6.6009   -0.8160    0.0000 C   0  0  0  0  0  0  0  0  0  0  0  0
    7.1894    0.5637    0.0000 C   0  0  0  0  0  0  0  0  0  0  0  0
    6.2887    1.7632    0.0000 C   0  0  0  0  0  0  0  0  0  0  0  0
    4.7996    1.5830    0.0000 C   0  0  0  0  0  0  0  0  0  0  0  0
    4.2111    0.2032    0.0000 C   0  0  0  0  0  0  0  0  0  0  0  0
   -1.0230    0.8106    0.0000 C   0  0  0  0  0  0  0  0  0  0  0  0
   -0.8897    2.3047    0.0000 O   0  0  0  0  0  0  0  0  0  0  0  0
   -2.3836    0.1790    0.0000 O   0  0  0  0  0  0  0  0  0  0  0  0
   -3.6108    1.0415    0.0000 C   0  0  0  0  0  0  0  0  0  0  0  0
   -4.9714    0.4099    0.0000 C   0  0  0  0  0  0  0  0  0  0  0  0
   -6.1986    1.2724    0.0000 C   0  0  0  0  0  0  0  0  0  0  0  0
   -7.5592    0.6408    0.0000 C   0  0  0  0  0  0  0  0  0  0  0  0
   -7.6925   -0.8533    0.0000 C   0  0  0  0  0  0  0  0  0  0  0  0
   -6.4652   -1.7157    0.0000 C   0  0  0  0  0  0  0  0  0  0  0  0
   -5.1047   -1.0841    0.0000 C   0  0  0  0  0  0  0  0  0  0  0  0
  2  1  1  1
  2  3  1  0
  3  4  1  0
  4  5  2  0
  5  6  1  0
  6  7  1  0
  7  8  2  0
  8  9  1  0
  9 10  2  0
 10 11  1  0
 11 12  2  0
  2 13  1  0
 13 14  2  0
 13 15  1  0
 15 16  1  0
 16 17  1  0
 17 18  2  0
 18 19  1  0
 19 20  2  0
 20 21  1  0
 21 22  2  0
 22 17  1  0
 12  4  1  0
 12  7  1  0
M  END
>  <rName>  (70) 
D-Trp-OBn

>  <PQ_SYMBOL>  (70) 
D-Trp-OBn

>  <FULL_NAME>  (70) 
D-Tryptophan benzyl ester

>  <IUPAC_CONDENSED>  (70) 
D-Trp-OBn

>  <IUPAC>  (70) 
benzyl (2R)-2-amino-3-(1H-indol-3-yl)propanoate

>  <TYPE>  (70) 
C-term cap

>  <CLASS>  (70) 
c_cap

>  <ANALOG>  (70) 
X

>  <MOL_WT>  (70) 
294.354

>  <LOGP>  (70) 
2.7811000000000012

>  <TPSA>  (70) 
68.11

>  <POPULARITY>  (70) 
7.8

>  <PROTECTED>  (70) 
TRUE

>  <SMILES>  (70) 
N[C@H](Cc2(c[nH]c3(ccccc23)))C(=O)OCc1ccccc1

>  <INCHIKEY>  (70) 
TYQYRKDGHAPZRF-MRXNPFEDSA-N

$$$$
Pro_4carbonyl-
     RDKit          2D

  9  9  0  0  0  0  0  0  0  0999 V2000
   -0.1792   -1.4541    0.0000 N   0  0  0  0  0  0  0  0  0  0  0  0
    0.4598   -0.0969    0.0000 C   0  0  0  0  0  0  0  0  0  0  0  0
   -0.6334    0.9301    0.0000 C   0  0  0  0  0  0  0  0  0  0  0  0
   -1.9481    0.2077    0.0000 C   0  0  0  0  0  0  0  0  0  0  0  0
   -3.3052    0.8467    0.0000 O   0  0  0  0  0  0  0  0  0  0  0  0
   -1.6673   -1.2657    0.0000 C   0  0  0  0  0  0  0  0  0  0  0  0
    1.9333    0.1838    0.0000 C   0  0  0  0  0  0  0  0  0  0  0  0
    2.4269    1.6003    0.0000 O   0  0  0  0  0  0  0  0  0  0  0  0
    2.9132   -0.9519    0.0000 O   0  0  0  0  0  0  0  0  0  0  0  0
  1  2  1  0
  2  3  1  0
  3  4  1  0
  4  5  2  0
  4  6  1  0
  2  7  1  1
  7  8  2  0
  7  9  1  0
  6  1  1  0
M  END
>  <rName>  (71) 
Pro_4carbonyl-

>  <PQ_SYMBOL>  (71) 
Pro_4carbonyl-

>  <FULL_NAME>  (71) 
(2S)-4-oxopyrrolidine-2-carboxylic acid

>  <IUPAC_CONDENSED>  (71) 
Pro(4-carbonyl)

>  <IUPAC>  (71) 
(2S)-4-oxopyrrolidine-2-carboxylic acid

>  <TYPE>  (71) 
N-term cap

>  <CLASS>  (71) 
n_cap

>  <ANALOG>  (71) 
X

>  <MOL_WT>  (71) 
129.115

>  <LOGP>  (71) 
-0.9980000000000004

>  <TPSA>  (71) 
66.4

>  <POPULARITY>  (71) 
7.7

>  <PROTECTED>  (71) 
TRUE

>  <SMILES>  (71) 
N1[C@@H](CC(=O)C1)C(=O)O

>  <INCHIKEY>  (71) 
HFXAFXVXPMUQCQ-BYPYZUCNSA-N

$$$$
Gly-OPh
     RDKit          2D

 11 11  0  0  0  0  0  0  0  0999 V2000
   -4.4974    0.2810    0.0000 N   0  0  0  0  0  0  0  0  0  0  0  0
   -3.3282   -0.6586    0.0000 C   0  0  0  0  0  0  0  0  0  0  0  0
   -1.9298   -0.1157    0.0000 C   0  0  0  0  0  0  0  0  0  0  0  0
   -1.7008    1.3667    0.0000 O   0  0  0  0  0  0  0  0  0  0  0  0
   -0.7606   -1.0553    0.0000 O   0  0  0  0  0  0  0  0  0  0  0  0
    0.6378   -0.5125    0.0000 C   0  0  0  0  0  0  0  0  0  0  0  0
    0.8669    0.9699    0.0000 C   0  0  0  0  0  0  0  0  0  0  0  0
    2.2652    1.5127    0.0000 C   0  0  0  0  0  0  0  0  0  0  0  0
    3.4345    0.5731    0.0000 C   0  0  0  0  0  0  0  0  0  0  0  0
    3.2054   -0.9093    0.0000 C   0  0  0  0  0  0  0  0  0  0  0  0
    1.8070   -1.4521    0.0000 C   0  0  0  0  0  0  0  0  0  0  0  0
  1  2  1  0
  2  3  1  0
  3  4  2  0
  3  5  1  0
  5  6  1  0
  6  7  2  0
  7  8  1  0
  8  9  2  0
  9 10  1  0
 10 11  2  0
 11  6  1  0
M  END
>  <rName>  (72) 
Gly-OPh

>  <PQ_SYMBOL>  (72) 
Gly-OPh

>  <FULL_NAME>  (72) 
Glycine phenyl ester

>  <IUPAC_CONDENSED>  (72) 
Gly-OPh

>  <IUPAC>  (72) 
phenyl 2-aminoacetate

>  <TYPE>  (72) 
C-term cap

>  <CLASS>  (72) 
c_cap

>  <ANALOG>  (72) 
X

>  <MOL_WT>  (72) 
151.165

>  <LOGP>  (72) 
0.5506999999999997

>  <TPSA>  (72) 
52.32000000000001

>  <POPULARITY>  (72) 
12.4

>  <PROTECTED>  (72) 
TRUE

>  <SMILES>  (72) 
NCC(=O)Oc1ccccc1

>  <INCHIKEY>  (72) 
BXPNTXBBAVYAMD-UHFFFAOYSA-N

$$$$
R-3-aminoazepan-2-one
     RDKit          2D

  9  9  0  0  0  0  0  0  0  0999 V2000
    2.2624   -1.4008    0.0000 N   0  0  0  0  0  0  0  0  0  0  0  0
    0.9110   -0.7500    0.0000 C   0  0  0  0  0  0  0  0  0  0  0  0
    0.9110    0.7500    0.0000 C   0  0  0  0  0  0  0  0  0  0  0  0
    2.2624    1.4008    0.0000 O   0  0  0  0  0  0  0  0  0  0  0  0
   -0.2618    1.6852    0.0000 N   0  0  0  0  0  0  0  0  0  0  0  0
   -1.7242    1.3515    0.0000 C   0  0  0  0  0  0  0  0  0  0  0  0
   -2.3750    0.0000    0.0000 C   0  0  0  0  0  0  0  0  0  0  0  0
   -1.7242   -1.3515    0.0000 C   0  0  0  0  0  0  0  0  0  0  0  0
   -0.2618   -1.6852    0.0000 C   0  0  0  0  0  0  0  0  0  0  0  0
  2  1  1  6
  2  3  1  0
  3  4  2  0
  3  5  1  0
  5  6  1  0
  6  7  1  0
  7  8  1  0
  8  9  1  0
  9  2  1  0
M  END
>  <rName>  (73) 
R-3-aminoazepan-2-one

>  <PQ_SYMBOL>  (73) 
R-3-aminoazepan-2-one

>  <FULL_NAME>  (73) 
(3R)-3-aminoazepan-2-one

>  <IUPAC_CONDENSED>  (73) 
R-3-aminoazepan-2-one

>  <IUPAC>  (73) 
(3R)-3-amino-1-azacycloheptan-2-one

>  <TYPE>  (73) 
C-term cap

>  <CLASS>  (73) 
c_cap

>  <ANALOG>  (73) 
X

>  <MOL_WT>  (73) 
128.17499999999998

>  <LOGP>  (73) 
-0.38620000000000076

>  <TPSA>  (73) 
55.120000000000005

>  <POPULARITY>  (73) 
10.8

>  <PROTECTED>  (73) 
TRUE

>  <SMILES>  (73) 
N[C@H]1C(=O)NCCCC1

>  <INCHIKEY>  (73) 
BOWUOGIPSRVRSJ-RXMQYKEDSA-N

$$$$
H2NCO-Phe
     RDKit          2D

 15 15  0  0  0  0  0  0  0  0999 V2000
   -4.2373   -0.8803    0.0000 C   0  0  0  0  0  0  0  0  0  0  0  0
   -4.2481    0.6196    0.0000 C   0  0  0  0  0  0  0  0  0  0  0  0
   -2.9544    1.3789    0.0000 C   0  0  0  0  0  0  0  0  0  0  0  0
   -1.6501    0.6382    0.0000 C   0  0  0  0  0  0  0  0  0  0  0  0
   -1.6393   -0.8618    0.0000 C   0  0  0  0  0  0  0  0  0  0  0  0
   -2.9330   -1.6210    0.0000 C   0  0  0  0  0  0  0  0  0  0  0  0
   -0.3564    1.3975    0.0000 C   0  0  0  0  0  0  0  0  0  0  0  0
    0.9480    0.6568    0.0000 C   0  0  0  0  0  0  0  0  0  0  0  0
    0.9587   -0.8432    0.0000 N   0  0  0  0  0  0  0  0  0  0  0  0
    2.2631   -1.5838    0.0000 C   0  0  0  0  0  0  0  0  0  0  0  0
    3.5567   -0.8246    0.0000 O   0  0  0  0  0  0  0  0  0  0  0  0
    2.2738   -3.0838    0.0000 N   0  0  0  0  0  0  0  0  0  0  0  0
    2.2416    1.4161    0.0000 C   0  0  0  0  0  0  0  0  0  0  0  0
    2.2309    2.9160    0.0000 O   0  0  0  0  0  0  0  0  0  0  0  0
    3.5460    0.6754    0.0000 O   0  0  0  0  0  0  0  0  0  0  0  0
  1  2  2  0
  2  3  1  0
  3  4  2  0
  4  5  1  0
  5  6  2  0
  4  7  1  0
  8  7  1  1
  8  9  1  0
  9 10  1  0
 10 11  2  0
 10 12  1  0
  8 13  1  0
 13 14  2  0
 13 15  1  0
  6  1  1  0
M  END
>  <rName>  (74) 
H2NCO-Phe

>  <PQ_SYMBOL>  (74) 
H2NCO-Phe

>  <FULL_NAME>  (74) 
(2S)-2-(carbamoylamino)-3-phenylpropanoic acid

>  <IUPAC_CONDENSED>  (74) 
H2NCO-Phe

>  <IUPAC>  (74) 
(2S)-2-(carbamoylamino)-3-phenylpropanoic acid

>  <TYPE>  (74) 
N-term cap

>  <CLASS>  (74) 
n_cap

>  <ANALOG>  (74) 
X

>  <MOL_WT>  (74) 
208.21699999999996

>  <LOGP>  (74) 
0.35060000000000013

>  <TPSA>  (74) 
92.42

>  <POPULARITY>  (74) 
12.5

>  <PROTECTED>  (74) 
TRUE

>  <SMILES>  (74) 
c1ccc(cc1)C[C@H](NC(=O)N)C(=O)O

>  <INCHIKEY>  (74) 
IPWQOZCSQLTKOI-QMMMGPOBSA-N

$$$$
MeOCO-Val
     RDKit          2D

 12 11  0  0  0  0  0  0  0  0999 V2000
   -4.3201    0.3860    0.0000 C   0  0  0  0  0  0  0  0  0  0  0  0
   -2.9981    1.0948    0.0000 O   0  0  0  0  0  0  0  0  0  0  0  0
   -1.7233    0.3043    0.0000 C   0  0  0  0  0  0  0  0  0  0  0  0
   -1.7705   -1.1949    0.0000 O   0  0  0  0  0  0  0  0  0  0  0  0
   -0.4014    1.0131    0.0000 N   0  0  0  0  0  0  0  0  0  0  0  0
    0.8735    0.2226    0.0000 C   0  0  0  0  0  0  0  0  0  0  0  0
    2.1954    0.9314    0.0000 C   0  0  0  0  0  0  0  0  0  0  0  0
    3.4702    0.1409    0.0000 C   0  0  0  0  0  0  0  0  0  0  0  0
    2.2426    2.4307    0.0000 C   0  0  0  0  0  0  0  0  0  0  0  0
    0.8263   -1.2766    0.0000 C   0  0  0  0  0  0  0  0  0  0  0  0
   -0.4957   -1.9854    0.0000 O   0  0  0  0  0  0  0  0  0  0  0  0
    2.1011   -2.0671    0.0000 O   0  0  0  0  0  0  0  0  0  0  0  0
  1  2  1  0
  2  3  1  0
  3  4  2  0
  3  5  1  0
  6  5  1  1
  6  7  1  0
  7  8  1  0
  7  9  1  0
  6 10  1  0
 10 11  2  0
 10 12  1  0
M  END
>  <rName>  (75) 
MeOCO-Val

>  <PQ_SYMBOL>  (75) 
MeOCO-Val

>  <FULL_NAME>  (75) 
(2S)-2-(methoxycarbonylamino)-3-methylbutanoic acid

>  <IUPAC_CONDENSED>  (75) 
MeOCO-Val

>  <IUPAC>  (75) 
(2S)-2-methoxycarbonylamino-3-methylbutanoic acid

>  <TYPE>  (75) 
N-term cap

>  <CLASS>  (75) 
n_cap

>  <ANALOG>  (75) 
X

>  <MOL_WT>  (75) 
175.18399999999997

>  <LOGP>  (75) 
0.4515999999999997

>  <TPSA>  (75) 
75.63

>  <POPULARITY>  (75) 
15.9

>  <PROTECTED>  (75) 
TRUE

>  <SMILES>  (75) 
COC(=O)N[C@@H](C(C)C)C(=O)O

>  <INCHIKEY>  (75) 
CEFVHPDFGLDQKU-YFKPBYRVSA-N

$$$$
Thr-OBn
     RDKit          2D

 15 15  0  0  0  0  0  0  0  0999 V2000
   -2.5285    2.0436    0.0000 N   0  0  0  0  0  0  0  0  0  0  0  0
   -2.8012    0.5686    0.0000 C   0  0  0  0  0  0  0  0  0  0  0  0
   -4.2149    0.0672    0.0000 C   0  0  0  0  0  0  0  0  0  0  0  0
   -4.4876   -1.4078    0.0000 O   0  0  0  0  0  0  0  0  0  0  0  0
   -5.3560    1.0409    0.0000 C   0  0  0  0  0  0  0  0  0  0  0  0
   -1.6601   -0.4050    0.0000 C   0  0  0  0  0  0  0  0  0  0  0  0
   -1.9328   -1.8800    0.0000 O   0  0  0  0  0  0  0  0  0  0  0  0
   -0.2464    0.0964    0.0000 O   0  0  0  0  0  0  0  0  0  0  0  0
    0.8947   -0.8772    0.0000 C   0  0  0  0  0  0  0  0  0  0  0  0
    2.3084   -0.3758    0.0000 C   0  0  0  0  0  0  0  0  0  0  0  0
    2.5811    1.0992    0.0000 C   0  0  0  0  0  0  0  0  0  0  0  0
    3.9948    1.6006    0.0000 C   0  0  0  0  0  0  0  0  0  0  0  0
    5.1359    0.6269    0.0000 C   0  0  0  0  0  0  0  0  0  0  0  0
    4.8632   -0.8481    0.0000 C   0  0  0  0  0  0  0  0  0  0  0  0
    3.4495   -1.3495    0.0000 C   0  0  0  0  0  0  0  0  0  0  0  0
  2  1  1  6
  2  3  1  0
  3  4  1  0
  3  5  1  6
  2  6  1  0
  6  7  2  0
  6  8  1  0
  8  9  1  0
  9 10  1  0
 10 11  2  0
 11 12  1  0
 12 13  2  0
 13 14  1  0
 14 15  2  0
 15 10  1  0
M  END
>  <rName>  (76) 
Thr-OBn

>  <PQ_SYMBOL>  (76) 
Thr-OBn

>  <FULL_NAME>  (76) 
L-Threonine benzyl ester

>  <IUPAC_CONDENSED>  (76) 
Thr-OBn

>  <IUPAC>  (76) 
benzyl (2S,3R)-2-amino-3-hydroxybutanoate

>  <TYPE>  (76) 
C-term cap

>  <CLASS>  (76) 
c_cap

>  <ANALOG>  (76) 
X

>  <MOL_WT>  (76) 
209.245

>  <LOGP>  (76) 
0.4378999999999993

>  <TPSA>  (76) 
72.55

>  <POPULARITY>  (76) 
6.9

>  <PROTECTED>  (76) 
TRUE

>  <SMILES>  (76) 
N[C@@H]([C@H](O)C)C(=O)OCc1ccccc1

>  <INCHIKEY>  (76) 
IHRYAQVOEVWURS-SCZZXKLOSA-N

$$$$
aIle-OMe
     RDKit          2D

 10  9  0  0  0  0  0  0  0  0999 V2000
   -0.3512    2.3311    0.0000 N   0  0  0  0  0  0  0  0  0  0  0  0
   -0.3760    0.8313    0.0000 C   0  0  0  0  0  0  0  0  0  0  0  0
   -1.6873    0.1029    0.0000 C   0  0  0  0  0  0  0  0  0  0  0  0
   -2.9737    0.8743    0.0000 C   0  0  0  0  0  0  0  0  0  0  0  0
   -1.7121   -1.3969    0.0000 C   0  0  0  0  0  0  0  0  0  0  0  0
   -0.4256   -2.1683    0.0000 C   0  0  0  0  0  0  0  0  0  0  0  0
    0.9104    0.0599    0.0000 C   0  0  0  0  0  0  0  0  0  0  0  0
    0.8856   -1.4398    0.0000 O   0  0  0  0  0  0  0  0  0  0  0  0
    2.2217    0.7884    0.0000 O   0  0  0  0  0  0  0  0  0  0  0  0
    3.5082    0.0170    0.0000 C   0  0  0  0  0  0  0  0  0  0  0  0
  2  1  1  6
  2  3  1  0
  3  4  1  1
  3  5  1  0
  5  6  1  0
  2  7  1  0
  7  8  2  0
  7  9  1  0
  9 10  1  0
M  END
>  <rName>  (77) 
aIle-OMe

>  <PQ_SYMBOL>  (77) 
aIle-OMe

>  <FULL_NAME>  (77) 
L-allo-Isoleucine methyl ester

>  <IUPAC_CONDENSED>  (77) 
aIle-OMe

>  <IUPAC>  (77) 
methyl (2S,3R)-2-amino-3-methylpentanoate

>  <TYPE>  (77) 
C-term cap

>  <CLASS>  (77) 
c_cap

>  <ANALOG>  (77) 
X

>  <MOL_WT>  (77) 
145.202

>  <LOGP>  (77) 
0.5327999999999997

>  <TPSA>  (77) 
52.32000000000001

>  <POPULARITY>  (77) 
9.2

>  <PROTECTED>  (77) 
TRUE

>  <SMILES>  (77) 
N[C@@H]([C@H](C)CC)C(=O)OC

>  <INCHIKEY>  (77) 
YXMMTUJDQTVJEN-RITPCOANSA-N

$$$$
Leu-OMe
     RDKit          2D

 10  9  0  0  0  0  0  0  0  0999 V2000
    0.1391    1.7243    0.0000 N   0  0  0  0  0  0  0  0  0  0  0  0
   -0.0935    0.2424    0.0000 C   0  0  0  0  0  0  0  0  0  0  0  0
   -1.4930   -0.2972    0.0000 C   0  0  0  0  0  0  0  0  0  0  0  0
   -1.7256   -1.7790    0.0000 O   0  0  0  0  0  0  0  0  0  0  0  0
   -2.6601    0.6451    0.0000 O   0  0  0  0  0  0  0  0  0  0  0  0
   -4.0597    0.1056    0.0000 C   0  0  0  0  0  0  0  0  0  0  0  0
    1.0736   -0.6999    0.0000 C   0  0  0  0  0  0  0  0  0  0  0  0
    2.4732   -0.1603    0.0000 C   0  0  0  0  0  0  0  0  0  0  0  0
    3.6403   -1.1026    0.0000 C   0  0  0  0  0  0  0  0  0  0  0  0
    2.7057    1.3216    0.0000 C   0  0  0  0  0  0  0  0  0  0  0  0
  2  1  1  1
  2  3  1  0
  3  4  2  0
  3  5  1  0
  5  6  1  0
  2  7  1  0
  7  8  1  0
  8  9  1  0
  8 10  1  0
M  END
>  <rName>  (78) 
Leu-OMe

>  <PQ_SYMBOL>  (78) 
Leu-OMe

>  <FULL_NAME>  (78) 
L-Leucine methyl ester

>  <IUPAC_CONDENSED>  (78) 
Leu-OMe

>  <IUPAC>  (78) 
methyl (2S)-2-amino-4-methylpentanoate

>  <TYPE>  (78) 
C-term cap

>  <CLASS>  (78) 
c_cap

>  <ANALOG>  (78) 
X

>  <MOL_WT>  (78) 
145.20199999999997

>  <LOGP>  (78) 
0.5327999999999997

>  <TPSA>  (78) 
52.32000000000001

>  <POPULARITY>  (78) 
32

>  <PROTECTED>  (78) 
TRUE

>  <SMILES>  (78) 
N[C@H](C(=O)OC)CC(C)C

>  <INCHIKEY>  (78) 
QVDXUKJJGUSGLS-LURJTMIESA-N

$$$$
Gly-OBn
     RDKit          2D

 12 12  0  0  0  0  0  0  0  0999 V2000
   -5.2230    0.5318    0.0000 N   0  0  0  0  0  0  0  0  0  0  0  0
   -3.7809    0.9446    0.0000 C   0  0  0  0  0  0  0  0  0  0  0  0
   -2.7024   -0.0979    0.0000 C   0  0  0  0  0  0  0  0  0  0  0  0
   -3.0660   -1.5532    0.0000 O   0  0  0  0  0  0  0  0  0  0  0  0
   -1.2603    0.3149    0.0000 O   0  0  0  0  0  0  0  0  0  0  0  0
   -0.1818   -0.7276    0.0000 C   0  0  0  0  0  0  0  0  0  0  0  0
    1.2603   -0.3149    0.0000 C   0  0  0  0  0  0  0  0  0  0  0  0
    1.6239    1.1404    0.0000 C   0  0  0  0  0  0  0  0  0  0  0  0
    3.0660    1.5532    0.0000 C   0  0  0  0  0  0  0  0  0  0  0  0
    4.1445    0.5107    0.0000 C   0  0  0  0  0  0  0  0  0  0  0  0
    3.7809   -0.9446    0.0000 C   0  0  0  0  0  0  0  0  0  0  0  0
    2.3388   -1.3574    0.0000 C   0  0  0  0  0  0  0  0  0  0  0  0
  1  2  1  0
  2  3  1  0
  3  4  2  0
  3  5  1  0
  5  6  1  0
  6  7  1  0
  7  8  2  0
  8  9  1  0
  9 10  2  0
 10 11  1  0
 11 12  2  0
 12  7  1  0
M  END
>  <rName>  (79) 
Gly-OBn

>  <PQ_SYMBOL>  (79) 
Gly-OBn

>  <FULL_NAME>  (79) 
Glycine benzyl ester

>  <IUPAC_CONDENSED>  (79) 
Gly-OBn

>  <IUPAC>  (79) 
benzyl 2-aminoacetate

>  <TYPE>  (79) 
C-term cap

>  <CLASS>  (79) 
c_cap

>  <ANALOG>  (79) 
X

>  <MOL_WT>  (79) 
165.192

>  <LOGP>  (79) 
0.6884999999999997

>  <TPSA>  (79) 
52.32000000000001

>  <POPULARITY>  (79) 
16

>  <PROTECTED>  (79) 
TRUE

>  <SMILES>  (79) 
NCC(=O)OCc1ccccc1

>  <INCHIKEY>  (79) 
JXYACYYPACQCDM-UHFFFAOYSA-N

$$$$
AlatBu-OMe
     RDKit          2D

 11 10  0  0  0  0  0  0  0  0999 V2000
   -0.0978    1.7382    0.0000 N   0  0  0  0  0  0  0  0  0  0  0  0
   -0.3201    0.2548    0.0000 C   0  0  0  0  0  0  0  0  0  0  0  0
   -1.7159   -0.2945    0.0000 C   0  0  0  0  0  0  0  0  0  0  0  0
   -1.9381   -1.7779    0.0000 O   0  0  0  0  0  0  0  0  0  0  0  0
   -2.8895    0.6397    0.0000 O   0  0  0  0  0  0  0  0  0  0  0  0
   -4.2853    0.0904    0.0000 C   0  0  0  0  0  0  0  0  0  0  0  0
    0.8535   -0.6794    0.0000 C   0  0  0  0  0  0  0  0  0  0  0  0
    2.2493   -0.1301    0.0000 C   0  0  0  0  0  0  0  0  0  0  0  0
    2.7986   -1.5260    0.0000 C   0  0  0  0  0  0  0  0  0  0  0  0
    1.7001    1.2657    0.0000 C   0  0  0  0  0  0  0  0  0  0  0  0
    3.6452    0.4191    0.0000 C   0  0  0  0  0  0  0  0  0  0  0  0
  2  1  1  1
  2  3  1  0
  3  4  2  0
  3  5  1  0
  5  6  1  0
  2  7  1  0
  7  8  1  0
  8  9  1  0
  8 10  1  0
  8 11  1  0
M  END
>  <rName>  (80) 
AlatBu-OMe

>  <PQ_SYMBOL>  (80) 
AlatBu-OMe

>  <FULL_NAME>  (80) 
methyl (2S)-2-amino-4,4-dimethylpentanoate

>  <IUPAC_CONDENSED>  (80) 
Ala(tBu)-OMe

>  <IUPAC>  (80) 
methyl (2S)-2-amino-4,4-dimethylpentanoate

>  <TYPE>  (80) 
C-term cap

>  <CLASS>  (80) 
c_cap

>  <ANALOG>  (80) 
X

>  <MOL_WT>  (80) 
159.22899999999998

>  <LOGP>  (80) 
0.9228999999999996

>  <TPSA>  (80) 
52.32000000000001

>  <POPULARITY>  (80) 
9.4

>  <PROTECTED>  (80) 
TRUE

>  <SMILES>  (80) 
N[C@H](C(=O)OC)CC(C)(C)C

>  <INCHIKEY>  (80) 
AHLUWXPHJXOHIQ-LURJTMIESA-N

$$$$
uracil-1-acetyl
     RDKit          2D

 12 12  0  0  0  0  0  0  0  0999 V2000
    4.0187   -0.9554    0.0000 O   0  0  0  0  0  0  0  0  0  0  0  0
    2.5795   -0.5324    0.0000 C   0  0  0  0  0  0  0  0  0  0  0  0
    1.4937   -1.5673    0.0000 C   0  0  0  0  0  0  0  0  0  0  0  0
    0.0546   -1.1443    0.0000 C   0  0  0  0  0  0  0  0  0  0  0  0
   -0.2987    0.3135    0.0000 N   0  0  0  0  0  0  0  0  0  0  0  0
    0.7871    1.3483    0.0000 C   0  0  0  0  0  0  0  0  0  0  0  0
    0.4338    2.8061    0.0000 O   0  0  0  0  0  0  0  0  0  0  0  0
    2.2262    0.9254    0.0000 N   0  0  0  0  0  0  0  0  0  0  0  0
   -1.7379    0.7364    0.0000 C   0  0  0  0  0  0  0  0  0  0  0  0
   -2.8237   -0.2985    0.0000 C   0  0  0  0  0  0  0  0  0  0  0  0
   -2.4704   -1.7563    0.0000 O   0  0  0  0  0  0  0  0  0  0  0  0
   -4.2629    0.1245    0.0000 O   0  0  0  0  0  0  0  0  0  0  0  0
  1  2  2  0
  2  3  1  0
  3  4  2  0
  4  5  1  0
  5  6  1  0
  6  7  2  0
  6  8  1  0
  5  9  1  0
  9 10  1  0
 10 11  2  0
 10 12  1  0
  8  2  1  0
M  END
>  <rName>  (81) 
uracil-1-acetyl

>  <PQ_SYMBOL>  (81) 
uracil-1-acetyl

>  <FULL_NAME>  (81) 
2-(2,4-dioxopyrimidin-1-yl)acetic acid

>  <IUPAC_CONDENSED>  (81) 
uracil-1-acetyl

>  <IUPAC>  (81) 
2-(2,4-dioxo-1,3-diazacyclohex-5-en-1-yl)acetic acid

>  <TYPE>  (81) 
N-term cap

>  <CLASS>  (81) 
n_cap

>  <ANALOG>  (81) 
X

>  <MOL_WT>  (81) 
170.124

>  <LOGP>  (81) 
-1.3787999999999996

>  <TPSA>  (81) 
92.16000000000001

>  <POPULARITY>  (81) 
15.1

>  <PROTECTED>  (81) 
TRUE

>  <SMILES>  (81) 
O=c1ccn(c(=O)[nH]1)CC(=O)O

>  <INCHIKEY>  (81) 
ZFNQFXDDQAEAFI-UHFFFAOYSA-N

$$$$
phthalimidoacetyl
     RDKit          2D

 15 16  0  0  0  0  0  0  0  0999 V2000
    4.0402   -0.1103    0.0000 C   0  0  0  0  0  0  0  0  0  0  0  0
    2.9644   -1.1556    0.0000 C   0  0  0  0  0  0  0  0  0  0  0  0
    1.5212   -0.7466    0.0000 C   0  0  0  0  0  0  0  0  0  0  0  0
    0.2516   -1.5454    0.0000 C   0  0  0  0  0  0  0  0  0  0  0  0
    0.1515   -3.0420    0.0000 O   0  0  0  0  0  0  0  0  0  0  0  0
   -0.9004   -0.5847    0.0000 N   0  0  0  0  0  0  0  0  0  0  0  0
   -0.3428    0.8078    0.0000 C   0  0  0  0  0  0  0  0  0  0  0  0
   -1.1416    2.0774    0.0000 O   0  0  0  0  0  0  0  0  0  0  0  0
    1.1538    0.7077    0.0000 C   0  0  0  0  0  0  0  0  0  0  0  0
    2.2297    1.7530    0.0000 C   0  0  0  0  0  0  0  0  0  0  0  0
    3.6728    1.3440    0.0000 C   0  0  0  0  0  0  0  0  0  0  0  0
   -2.3548   -0.9521    0.0000 C   0  0  0  0  0  0  0  0  0  0  0  0
   -3.4001    0.1237    0.0000 C   0  0  0  0  0  0  0  0  0  0  0  0
   -2.9910    1.5669    0.0000 O   0  0  0  0  0  0  0  0  0  0  0  0
   -4.8544   -0.2436    0.0000 O   0  0  0  0  0  0  0  0  0  0  0  0
  1  2  1  0
  2  3  2  0
  3  4  1  0
  4  5  2  0
  4  6  1  0
  6  7  1  0
  7  8  2  0
  7  9  1  0
  9 10  2  0
 10 11  1  0
  6 12  1  0
 12 13  1  0
 13 14  2  0
 13 15  1  0
  9  3  1  0
 11  1  2  0
M  END
>  <rName>  (82) 
phthalimidoacetyl

>  <PQ_SYMBOL>  (82) 
phthalimidoacetyl

>  <FULL_NAME>  (82) 
2-(1,3-dioxoisoindol-2-yl)acetic acid

>  <IUPAC_CONDENSED>  (82) 
phthalimidoacetyl

>  <IUPAC>  (82) 
2-(7,9-dioxo-8-azabicyclo[4.3.0]nona-1(6),2,4-trien-8-yl)acetic acid

>  <TYPE>  (82) 
N-term cap

>  <CLASS>  (82) 
n_cap

>  <ANALOG>  (82) 
X

>  <MOL_WT>  (82) 
205.16899999999998

>  <LOGP>  (82) 
0.3672

>  <TPSA>  (82) 
74.68

>  <POPULARITY>  (82) 
14.2

>  <PROTECTED>  (82) 
TRUE

>  <SMILES>  (82) 
c2cc1C(=O)N(C(=O)c1cc2)CC(=O)O

>  <INCHIKEY>  (82) 
WQINSVOOIJDOLJ-UHFFFAOYSA-N

$$$$
prop-2-ynyl-Gly-
     RDKit          2D

  8  7  0  0  0  0  0  0  0  0999 V2000
    0.3245    0.0130    0.0000 N   0  0  0  0  0  0  0  0  0  0  0  0
    1.5925    0.8143    0.0000 C   0  0  0  0  0  0  0  0  0  0  0  0
    2.9205    0.1168    0.0000 C   0  0  0  0  0  0  0  0  0  0  0  0
    4.2485   -0.5807    0.0000 C   0  0  0  0  0  0  0  0  0  0  0  0
   -1.0035    0.7105    0.0000 C   0  0  0  0  0  0  0  0  0  0  0  0
   -2.2715   -0.0908    0.0000 C   0  0  0  0  0  0  0  0  0  0  0  0
   -2.2116   -1.5896    0.0000 O   0  0  0  0  0  0  0  0  0  0  0  0
   -3.5995    0.6067    0.0000 O   0  0  0  0  0  0  0  0  0  0  0  0
  1  2  1  0
  2  3  1  0
  3  4  3  0
  1  5  1  0
  5  6  1  0
  6  7  2  0
  6  8  1  0
M  END
>  <rName>  (83) 
prop-2-ynyl-Gly-

>  <PQ_SYMBOL>  (83) 
prop-2-ynyl-Gly-

>  <FULL_NAME>  (83) 
2-(prop-2-ynylamino)acetic acid

>  <IUPAC_CONDENSED>  (83) 
prop-2-ynyl-Gly

>  <IUPAC>  (83) 
2-((prop-2-yn-1-yl)amino)acetic acid

>  <TYPE>  (83) 
N-term cap

>  <CLASS>  (83) 
n_cap

>  <ANALOG>  (83) 
X

>  <MOL_WT>  (83) 
113.11599999999999

>  <LOGP>  (83) 
-0.7062000000000002

>  <TPSA>  (83) 
49.33

>  <POPULARITY>  (83) 
9.3

>  <PROTECTED>  (83) 
TRUE

>  <SMILES>  (83) 
N(CC#C)CC(=O)O

>  <INCHIKEY>  (83) 
XSJLQGMTIHCDSS-UHFFFAOYSA-N

$$$$
D-quinazolinedione-Phe
     RDKit          2D

 23 25  0  0  0  0  0  0  0  0999 V2000
    5.9733    0.8048    0.0000 C   0  0  0  0  0  0  0  0  0  0  0  0
    5.2141   -0.4888    0.0000 C   0  0  0  0  0  0  0  0  0  0  0  0
    3.7141   -0.4782    0.0000 C   0  0  0  0  0  0  0  0  0  0  0  0
    2.9549   -1.7719    0.0000 N   0  0  0  0  0  0  0  0  0  0  0  0
    1.4549   -1.7612    0.0000 C   0  0  0  0  0  0  0  0  0  0  0  0
    0.6957   -3.0549    0.0000 O   0  0  0  0  0  0  0  0  0  0  0  0
    0.7142   -0.4569    0.0000 N   0  0  0  0  0  0  0  0  0  0  0  0
    1.4734    0.8368    0.0000 C   0  0  0  0  0  0  0  0  0  0  0  0
    0.7326    2.1411    0.0000 O   0  0  0  0  0  0  0  0  0  0  0  0
    2.9733    0.8261    0.0000 C   0  0  0  0  0  0  0  0  0  0  0  0
    3.7325    2.1198    0.0000 C   0  0  0  0  0  0  0  0  0  0  0  0
    5.2325    2.1092    0.0000 C   0  0  0  0  0  0  0  0  0  0  0  0
   -0.7858   -0.4463    0.0000 C   0  0  0  0  0  0  0  0  0  0  0  0
   -1.5266    0.8581    0.0000 C   0  0  0  0  0  0  0  0  0  0  0  0
   -3.0265    0.8687    0.0000 C   0  0  0  0  0  0  0  0  0  0  0  0
   -3.7673    2.1730    0.0000 C   0  0  0  0  0  0  0  0  0  0  0  0
   -5.2672    2.1837    0.0000 C   0  0  0  0  0  0  0  0  0  0  0  0
   -6.0264    0.8900    0.0000 C   0  0  0  0  0  0  0  0  0  0  0  0
   -5.2857   -0.4143    0.0000 C   0  0  0  0  0  0  0  0  0  0  0  0
   -3.7857   -0.4250    0.0000 C   0  0  0  0  0  0  0  0  0  0  0  0
   -1.5450   -1.7400    0.0000 C   0  0  0  0  0  0  0  0  0  0  0  0
   -0.8042   -3.0443    0.0000 O   0  0  0  0  0  0  0  0  0  0  0  0
   -3.0450   -1.7293    0.0000 O   0  0  0  0  0  0  0  0  0  0  0  0
  1  2  1  0
  2  3  2  0
  3  4  1  0
  4  5  1  0
  5  6  2  0
  5  7  1  0
  7  8  1  0
  8  9  2  0
  8 10  1  0
 10 11  2  0
 11 12  1  0
  7 13  1  0
 13 14  1  1
 14 15  1  0
 15 16  2  0
 16 17  1  0
 17 18  2  0
 18 19  1  0
 19 20  2  0
 13 21  1  0
 21 22  2  0
 21 23  1  0
 20 15  1  0
 10  3  1  0
 12  1  2  0
M  END
>  <rName>  (84) 
D-quinazolinedione-Phe

>  <PQ_SYMBOL>  (84) 
D-quinazolinedione-Phe

>  <FULL_NAME>  (84) 
(2R)-2-(2,4-dioxo-1H-quinazolin-3-yl)-3-phenylpropanoic acid

>  <IUPAC_CONDENSED>  (84) 
D-quinazolinedione-Phe

>  <IUPAC>  (84) 
(2R)-2-(3,5-dioxo-2,4-diazabicyclo[4.4.0]deca-1(6),7,9-trien-4-yl)-3-phenylpropanoic acid

>  <TYPE>  (84) 
N-term cap

>  <CLASS>  (84) 
n_cap

>  <ANALOG>  (84) 
X

>  <MOL_WT>  (84) 
310.309

>  <LOGP>  (84) 
1.5582

>  <TPSA>  (84) 
92.16000000000001

>  <POPULARITY>  (84) 
5.7

>  <PROTECTED>  (84) 
TRUE

>  <SMILES>  (84) 
c3cc2[nH]c(=O)n(c(=O)c2cc3)[C@H](Cc1(ccccc1))C(=O)O

>  <INCHIKEY>  (84) 
JSHKCLVDTGIHEU-CQSZACIVSA-N

$$$$
piperazino4-CH2CO2Hacetyl
     RDKit          2D

 14 14  0  0  0  0  0  0  0  0999 V2000
   -5.3860   -0.4910    0.0000 O   0  0  0  0  0  0  0  0  0  0  0  0
   -3.9686    0.0000    0.0000 C   0  0  0  0  0  0  0  0  0  0  0  0
   -3.6852    1.4730    0.0000 O   0  0  0  0  0  0  0  0  0  0  0  0
   -2.8347   -0.9820    0.0000 C   0  0  0  0  0  0  0  0  0  0  0  0
   -1.4174   -0.4910    0.0000 N   0  0  0  0  0  0  0  0  0  0  0  0
   -1.1339    0.9820    0.0000 C   0  0  0  0  0  0  0  0  0  0  0  0
    0.2835    1.4730    0.0000 C   0  0  0  0  0  0  0  0  0  0  0  0
    1.4174    0.4910    0.0000 N   0  0  0  0  0  0  0  0  0  0  0  0
    1.1339   -0.9820    0.0000 C   0  0  0  0  0  0  0  0  0  0  0  0
   -0.2835   -1.4730    0.0000 C   0  0  0  0  0  0  0  0  0  0  0  0
    2.8347    0.9820    0.0000 C   0  0  0  0  0  0  0  0  0  0  0  0
    3.9686   -0.0000    0.0000 C   0  0  0  0  0  0  0  0  0  0  0  0
    3.6852   -1.4730    0.0000 O   0  0  0  0  0  0  0  0  0  0  0  0
    5.3860    0.4910    0.0000 O   0  0  0  0  0  0  0  0  0  0  0  0
  1  2  1  0
  2  3  2  0
  2  4  1  0
  4  5  1  0
  5  6  1  0
  6  7  1  0
  7  8  1  0
  8  9  1  0
  9 10  1  0
  8 11  1  0
 11 12  1  0
 12 13  2  0
 12 14  1  0
 10  5  1  0
M  END
>  <rName>  (85) 
piperazino4-CH2CO2Hacetyl

>  <PQ_SYMBOL>  (85) 
piperazino4-CH2CO2Hacetyl

>  <FULL_NAME>  (85) 
2-[4-(carboxymethyl)piperazin-1-yl]acetic acid

>  <IUPAC_CONDENSED>  (85) 
piperazino(4-CH2CO2H)acetyl

>  <IUPAC>  (85) 
2-(4-(2-hydroxy-2-oxoethyl)piperazin-1-yl)acetic acid

>  <TYPE>  (85) 
N-term cap

>  <CLASS>  (85) 
n_cap

>  <ANALOG>  (85) 
X

>  <MOL_WT>  (85) 
202.20999999999998

>  <LOGP>  (85) 
-1.2267999999999981

>  <TPSA>  (85) 
81.08

>  <POPULARITY>  (85) 
7

>  <PROTECTED>  (85) 
TRUE

>  <SMILES>  (85) 
OC(=O)CN1CCN(CC1)CC(=O)O

>  <INCHIKEY>  (85) 
JERMFLFKXHHROS-UHFFFAOYSA-N

$$$$
D-Phe-OEt
     RDKit          2D

 14 14  0  0  0  0  0  0  0  0999 V2000
   -0.4946    1.4988    0.0000 N   0  0  0  0  0  0  0  0  0  0  0  0
   -0.7497    0.0207    0.0000 C   0  0  0  0  0  0  0  0  0  0  0  0
   -2.1574   -0.4975    0.0000 C   0  0  0  0  0  0  0  0  0  0  0  0
   -2.4125   -1.9756    0.0000 O   0  0  0  0  0  0  0  0  0  0  0  0
   -3.3099    0.4625    0.0000 O   0  0  0  0  0  0  0  0  0  0  0  0
   -4.7176   -0.0557    0.0000 C   0  0  0  0  0  0  0  0  0  0  0  0
   -5.8702    0.9043    0.0000 C   0  0  0  0  0  0  0  0  0  0  0  0
    0.4029   -0.9393    0.0000 C   0  0  0  0  0  0  0  0  0  0  0  0
    1.8105   -0.4212    0.0000 C   0  0  0  0  0  0  0  0  0  0  0  0
    2.0656    1.0570    0.0000 C   0  0  0  0  0  0  0  0  0  0  0  0
    3.4733    1.5751    0.0000 C   0  0  0  0  0  0  0  0  0  0  0  0
    4.6258    0.6151    0.0000 C   0  0  0  0  0  0  0  0  0  0  0  0
    4.3707   -0.8630    0.0000 C   0  0  0  0  0  0  0  0  0  0  0  0
    2.9631   -1.3812    0.0000 C   0  0  0  0  0  0  0  0  0  0  0  0
  2  1  1  6
  2  3  1  0
  3  4  2  0
  3  5  1  0
  5  6  1  0
  6  7  1  0
  2  8  1  0
  8  9  1  0
  9 10  2  0
 10 11  1  0
 11 12  2  0
 12 13  1  0
 13 14  2  0
 14  9  1  0
M  END
>  <rName>  (86) 
D-Phe-OEt

>  <PQ_SYMBOL>  (86) 
D-Phe-OEt

>  <FULL_NAME>  (86) 
ethyl (2R)-2-amino-3-phenylpropanoate

>  <IUPAC_CONDENSED>  (86) 
D-Phe-OEt

>  <IUPAC>  (86) 
ethyl (2R)-2-amino-3-phenylpropanoate

>  <TYPE>  (86) 
C-term cap

>  <CLASS>  (86) 
c_cap

>  <ANALOG>  (86) 
X

>  <MOL_WT>  (86) 
193.24600000000004

>  <LOGP>  (86) 
1.1194999999999997

>  <TPSA>  (86) 
52.32000000000001

>  <POPULARITY>  (86) 
9.1

>  <PROTECTED>  (86) 
TRUE

>  <SMILES>  (86) 
N[C@@H](C(=O)OCC)Cc1ccccc1

>  <INCHIKEY>  (86) 
CJGXMNONHNZEQQ-SNVBAGLBSA-N

$$$$
His-al
     RDKit          2D

 10 10  0  0  0  0  0  0  0  0999 V2000
   -1.4194    1.3834    0.0000 N   0  0  0  0  0  0  0  0  0  0  0  0
   -1.6201   -0.1031    0.0000 C   0  0  0  0  0  0  0  0  0  0  0  0
   -3.0078   -0.6725    0.0000 C   0  0  0  0  0  0  0  0  0  0  0  0
   -4.1948    0.2446    0.0000 O   0  0  0  0  0  0  0  0  0  0  0  0
   -0.4331   -1.0202    0.0000 C   0  0  0  0  0  0  0  0  0  0  0  0
    0.9546   -0.4508    0.0000 C   0  0  0  0  0  0  0  0  0  0  0  0
    2.2309   -1.2388    0.0000 C   0  0  0  0  0  0  0  0  0  0  0  0
    3.3748   -0.2685    0.0000 N   0  0  0  0  0  0  0  0  0  0  0  0
    2.8054    1.1193    0.0000 C   0  0  0  0  0  0  0  0  0  0  0  0
    1.3096    1.0066    0.0000 N   0  0  0  0  0  0  0  0  0  0  0  0
  2  1  1  1
  2  3  1  0
  3  4  2  0
  2  5  1  0
  5  6  1  0
  6  7  2  0
  7  8  1  0
  8  9  1  0
  9 10  2  0
 10  6  1  0
M  END
>  <rName>  (87) 
His-al

>  <PQ_SYMBOL>  (87) 
His-al

>  <FULL_NAME>  (87) 
(2S)-2-amino-3-(1H-imidazol-5-yl)propanal

>  <IUPAC_CONDENSED>  (87) 
His-al

>  <IUPAC>  (87) 
(2S)-2-amino-3-(1H-imidazol-4-yl)propanal

>  <TYPE>  (87) 
C-term cap

>  <CLASS>  (87) 
c_cap

>  <ANALOG>  (87) 
X

>  <MOL_WT>  (87) 
139.158

>  <LOGP>  (87) 
-0.5216000000000007

>  <TPSA>  (87) 
71.77000000000001

>  <POPULARITY>  (87) 
27

>  <PROTECTED>  (87) 
TRUE

>  <SMILES>  (87) 
N[C@H](C=O)Cc1c[nH]cn1

>  <INCHIKEY>  (87) 
VYOIELONWKIZJS-YFKPBYRVSA-N

$$$$
Tyr_3F-
     RDKit          2D

 14 14  0  0  0  0  0  0  0  0999 V2000
   -2.0094    1.6916    0.0000 N   0  0  0  0  0  0  0  0  0  0  0  0
   -2.3243    0.2250    0.0000 C   0  0  0  0  0  0  0  0  0  0  0  0
   -1.2116   -0.7809    0.0000 C   0  0  0  0  0  0  0  0  0  0  0  0
    0.2159   -0.3203    0.0000 C   0  0  0  0  0  0  0  0  0  0  0  0
    0.5308    1.1463    0.0000 C   0  0  0  0  0  0  0  0  0  0  0  0
    1.9583    1.6069    0.0000 C   0  0  0  0  0  0  0  0  0  0  0  0
    3.0710    0.6009    0.0000 C   0  0  0  0  0  0  0  0  0  0  0  0
    4.4985    1.0615    0.0000 O   0  0  0  0  0  0  0  0  0  0  0  0
    2.7561   -0.8657    0.0000 C   0  0  0  0  0  0  0  0  0  0  0  0
    3.8688   -1.8716    0.0000 F   0  0  0  0  0  0  0  0  0  0  0  0
    1.3286   -1.3263    0.0000 C   0  0  0  0  0  0  0  0  0  0  0  0
   -3.7518   -0.2356    0.0000 C   0  0  0  0  0  0  0  0  0  0  0  0
   -4.0666   -1.7022    0.0000 O   0  0  0  0  0  0  0  0  0  0  0  0
   -4.8644    0.7704    0.0000 O   0  0  0  0  0  0  0  0  0  0  0  0
  2  1  1  1
  2  3  1  0
  3  4  1  0
  4  5  1  0
  5  6  2  0
  6  7  1  0
  7  8  1  0
  7  9  2  0
  9 10  1  0
  9 11  1  0
  2 12  1  0
 12 13  2  0
 12 14  1  0
 11  4  2  0
M  END
>  <rName>  (88) 
Tyr_3F-

>  <PQ_SYMBOL>  (88) 
Tyr_3F-

>  <FULL_NAME>  (88) 
(2S)-2-amino-3-(3-fluoro-4-hydroxyphenyl)propanoic acid

>  <IUPAC_CONDENSED>  (88) 
Tyr(3-F)

>  <IUPAC>  (88) 
(2S)-2-amino-3-(3-fluoro-4-hydroxyphenyl)propanoic acid

>  <TYPE>  (88) 
N-term cap

>  <CLASS>  (88) 
n_cap

>  <ANALOG>  (88) 
X

>  <MOL_WT>  (88) 
199.18099999999995

>  <LOGP>  (88) 
0.48570000000000013

>  <TPSA>  (88) 
83.55

>  <POPULARITY>  (88) 
6.7

>  <PROTECTED>  (88) 
TRUE

>  <SMILES>  (88) 
N[C@@H](Cc1(ccc(O)c(F)c1))C(=O)O

>  <INCHIKEY>  (88) 
VIIAUOZUUGXERI-ZETCQYMHSA-N

$$$$
Tyr3-OH-OMe
     RDKit          2D

 15 15  0  0  0  0  0  0  0  0999 V2000
   -1.6113    1.6504    0.0000 N   0  0  0  0  0  0  0  0  0  0  0  0
   -1.9073    0.1799    0.0000 C   0  0  0  0  0  0  0  0  0  0  0  0
   -3.3288   -0.2990    0.0000 C   0  0  0  0  0  0  0  0  0  0  0  0
   -3.6248   -1.7695    0.0000 O   0  0  0  0  0  0  0  0  0  0  0  0
   -4.4542    0.6926    0.0000 O   0  0  0  0  0  0  0  0  0  0  0  0
   -5.8757    0.2137    0.0000 C   0  0  0  0  0  0  0  0  0  0  0  0
   -0.7818   -0.8117    0.0000 C   0  0  0  0  0  0  0  0  0  0  0  0
    0.6397   -0.3328    0.0000 C   0  0  0  0  0  0  0  0  0  0  0  0
    0.9357    1.1377    0.0000 C   0  0  0  0  0  0  0  0  0  0  0  0
    2.3572    1.6166    0.0000 C   0  0  0  0  0  0  0  0  0  0  0  0
    3.4827    0.6250    0.0000 C   0  0  0  0  0  0  0  0  0  0  0  0
    3.1867   -0.8455    0.0000 C   0  0  0  0  0  0  0  0  0  0  0  0
    4.3122   -1.8371    0.0000 O   0  0  0  0  0  0  0  0  0  0  0  0
    1.7652   -1.3244    0.0000 C   0  0  0  0  0  0  0  0  0  0  0  0
    4.9042    1.1039    0.0000 O   0  0  0  0  0  0  0  0  0  0  0  0
  2  1  1  1
  2  3  1  0
  3  4  2  0
  3  5  1  0
  5  6  1  0
  2  7  1  0
  7  8  1  0
  8  9  1  0
  9 10  2  0
 10 11  1  0
 11 12  2  0
 12 13  1  0
 12 14  1  0
 11 15  1  0
 14  8  2  0
M  END
>  <rName>  (89) 
Tyr3-OH-OMe

>  <PQ_SYMBOL>  (89) 
Tyr3-OH-OMe

>  <FULL_NAME>  (89) 
methyl (2S)-2-amino-3-(3,4-dihydroxyphenyl)propanoate

>  <IUPAC_CONDENSED>  (89) 
Tyr(3-OH)-OMe

>  <IUPAC>  (89) 
methyl (2S)-2-amino-3-(3,4-dihydroxyphenyl)propanoate

>  <TYPE>  (89) 
C-term cap

>  <CLASS>  (89) 
c_cap

>  <ANALOG>  (89) 
X

>  <MOL_WT>  (89) 
211.217

>  <LOGP>  (89) 
0.1405999999999995

>  <TPSA>  (89) 
92.78000000000002

>  <POPULARITY>  (89) 
10.3

>  <PROTECTED>  (89) 
TRUE

>  <SMILES>  (89) 
N[C@H](C(=O)OC)Cc1ccc(c(O)c1)O

>  <INCHIKEY>  (89) 
XBBDACCLCFWBSI-ZETCQYMHSA-N

$$$$
2-guanidinoacetyl
     RDKit          2D

  8  7  0  0  0  0  0  0  0  0999 V2000
   -3.1182    0.9820    0.0000 N   0  0  0  0  0  0  0  0  0  0  0  0
   -1.9843   -0.0000    0.0000 C   0  0  0  0  0  0  0  0  0  0  0  0
   -2.2678   -1.4730    0.0000 N   0  0  0  0  0  0  0  0  0  0  0  0
   -0.5669    0.4910    0.0000 N   0  0  0  0  0  0  0  0  0  0  0  0
    0.5669   -0.4910    0.0000 C   0  0  0  0  0  0  0  0  0  0  0  0
    1.9843    0.0000    0.0000 C   0  0  0  0  0  0  0  0  0  0  0  0
    2.2678    1.4730    0.0000 O   0  0  0  0  0  0  0  0  0  0  0  0
    3.1182   -0.9820    0.0000 O   0  0  0  0  0  0  0  0  0  0  0  0
  1  2  1  0
  2  3  2  0
  2  4  1  0
  4  5  1  0
  5  6  1  0
  6  7  2  0
  6  8  1  0
M  END
>  <rName>  (90) 
2-guanidinoacetyl

>  <PQ_SYMBOL>  (90) 
2-guanidinoacetyl

>  <FULL_NAME>  (90) 
2-(diaminomethylideneamino)acetic acid

>  <IUPAC_CONDENSED>  (90) 
2-guanidinoacetyl

>  <IUPAC>  (90) 
2-(((amino)(imino)methyl)amino)acetic acid

>  <TYPE>  (90) 
N-term cap

>  <CLASS>  (90) 
n_cap

>  <ANALOG>  (90) 
X

>  <MOL_WT>  (90) 
117.10799999999999

>  <LOGP>  (90) 
-1.4459299999999997

>  <TPSA>  (90) 
99.2

>  <POPULARITY>  (90) 
15.8

>  <PROTECTED>  (90) 
TRUE

>  <SMILES>  (90) 
NC(=N)NCC(=O)O

>  <INCHIKEY>  (90) 
BPMFZUMJYQTVII-UHFFFAOYSA-N

$$$$
PhOCO-Val
     RDKit          2D

 17 17  0  0  0  0  0  0  0  0999 V2000
   -5.2667   -0.6190    0.0000 C   0  0  0  0  0  0  0  0  0  0  0  0
   -5.1408    0.8757    0.0000 C   0  0  0  0  0  0  0  0  0  0  0  0
   -3.7834    1.5140    0.0000 C   0  0  0  0  0  0  0  0  0  0  0  0
   -2.5519    0.6577    0.0000 C   0  0  0  0  0  0  0  0  0  0  0  0
   -2.6778   -0.8371    0.0000 C   0  0  0  0  0  0  0  0  0  0  0  0
   -4.0352   -1.4754    0.0000 C   0  0  0  0  0  0  0  0  0  0  0  0
   -1.1945    1.2960    0.0000 O   0  0  0  0  0  0  0  0  0  0  0  0
    0.0370    0.4396    0.0000 C   0  0  0  0  0  0  0  0  0  0  0  0
   -0.0889   -1.0551    0.0000 O   0  0  0  0  0  0  0  0  0  0  0  0
    1.3944    1.0780    0.0000 N   0  0  0  0  0  0  0  0  0  0  0  0
    2.6259    0.2216    0.0000 C   0  0  0  0  0  0  0  0  0  0  0  0
    3.9833    0.8599    0.0000 C   0  0  0  0  0  0  0  0  0  0  0  0
    5.2148    0.0035    0.0000 C   0  0  0  0  0  0  0  0  0  0  0  0
    4.1092    2.3546    0.0000 C   0  0  0  0  0  0  0  0  0  0  0  0
    2.5001   -1.2731    0.0000 C   0  0  0  0  0  0  0  0  0  0  0  0
    1.1427   -1.9115    0.0000 O   0  0  0  0  0  0  0  0  0  0  0  0
    3.7316   -2.1295    0.0000 O   0  0  0  0  0  0  0  0  0  0  0  0
  1  2  2  0
  2  3  1  0
  3  4  2  0
  4  5  1  0
  5  6  2  0
  4  7  1  0
  7  8  1  0
  8  9  2  0
  8 10  1  0
 11 10  1  1
 11 12  1  0
 12 13  1  0
 12 14  1  0
 11 15  1  0
 15 16  2  0
 15 17  1  0
  6  1  1  0
M  END
>  <rName>  (91) 
PhOCO-Val

>  <PQ_SYMBOL>  (91) 
PhOCO-Val

>  <FULL_NAME>  (91) 
(2S)-3-methyl-2-(phenoxycarbonylamino)butanoic acid

>  <IUPAC_CONDENSED>  (91) 
PhOCO-Val

>  <IUPAC>  (91) 
(2S)-3-methyl-2-phenoxycarbonylaminobutanoic acid

>  <TYPE>  (91) 
N-term cap

>  <CLASS>  (91) 
n_cap

>  <ANALOG>  (91) 
X

>  <MOL_WT>  (91) 
237.25499999999997

>  <LOGP>  (91) 
1.8841999999999997

>  <TPSA>  (91) 
75.63

>  <POPULARITY>  (91) 
12

>  <PROTECTED>  (91) 
TRUE

>  <SMILES>  (91) 
c1ccc(cc1)OC(=O)N[C@@H](C(C)C)C(=O)O

>  <INCHIKEY>  (91) 
HVJMEAOTIUMIBJ-JTQLQIEISA-N

$$$$
NMe-Sar
     RDKit          2D

  7  6  0  0  0  0  0  0  0  0999 V2000
   -2.5981    0.8571    0.0000 C   0  0  0  0  0  0  0  0  0  0  0  0
   -1.2990    0.1071    0.0000 N   0  0  0  0  0  0  0  0  0  0  0  0
   -1.2990   -1.3929    0.0000 C   0  0  0  0  0  0  0  0  0  0  0  0
    0.0000    0.8571    0.0000 C   0  0  0  0  0  0  0  0  0  0  0  0
    1.2990    0.1071    0.0000 C   0  0  0  0  0  0  0  0  0  0  0  0
    1.2990   -1.3929    0.0000 O   0  0  0  0  0  0  0  0  0  0  0  0
    2.5981    0.8571    0.0000 O   0  0  0  0  0  0  0  0  0  0  0  0
  1  2  1  0
  2  3  1  0
  2  4  1  0
  4  5  1  0
  5  6  2  0
  5  7  1  0
M  END
>  <rName>  (92) 
NMe-Sar

>  <PQ_SYMBOL>  (92) 
NMe-Sar

>  <FULL_NAME>  (92) 
N,N-dimethylglycine, methyl sarcosine

>  <IUPAC_CONDENSED>  (92) 
Me-Sar

>  <IUPAC>  (92) 
2-(dimethylamino)acetic acid

>  <TYPE>  (92) 
N-term cap

>  <CLASS>  (92) 
n_cap

>  <ANALOG>  (92) 
X

>  <MOL_WT>  (92) 
103.12099999999998

>  <LOGP>  (92) 
-0.3674

>  <TPSA>  (92) 
40.540000000000006

>  <POPULARITY>  (92) 
21.3

>  <PROTECTED>  (92) 
TRUE

>  <SMILES>  (92) 
CN(C)CC(=O)O

>  <INCHIKEY>  (92) 
FFDGPVCHZBVARC-UHFFFAOYSA-N

$$$$
Phe-al
     RDKit          2D

 11 11  0  0  0  0  0  0  0  0999 V2000
   -1.7008    1.3667    0.0000 N   0  0  0  0  0  0  0  0  0  0  0  0
   -1.9298   -0.1157    0.0000 C   0  0  0  0  0  0  0  0  0  0  0  0
   -3.3282   -0.6586    0.0000 C   0  0  0  0  0  0  0  0  0  0  0  0
   -4.4974    0.2810    0.0000 O   0  0  0  0  0  0  0  0  0  0  0  0
   -0.7606   -1.0553    0.0000 C   0  0  0  0  0  0  0  0  0  0  0  0
    0.6378   -0.5125    0.0000 C   0  0  0  0  0  0  0  0  0  0  0  0
    0.8669    0.9699    0.0000 C   0  0  0  0  0  0  0  0  0  0  0  0
    2.2652    1.5127    0.0000 C   0  0  0  0  0  0  0  0  0  0  0  0
    3.4345    0.5731    0.0000 C   0  0  0  0  0  0  0  0  0  0  0  0
    3.2054   -0.9093    0.0000 C   0  0  0  0  0  0  0  0  0  0  0  0
    1.8070   -1.4521    0.0000 C   0  0  0  0  0  0  0  0  0  0  0  0
  2  1  1  1
  2  3  1  0
  3  4  2  0
  2  5  1  0
  5  6  1  0
  6  7  2  0
  7  8  1  0
  8  9  2  0
  9 10  1  0
 10 11  2  0
 11  6  1  0
M  END
>  <rName>  (93) 
Phe-al

>  <PQ_SYMBOL>  (93) 
Phe-al

>  <FULL_NAME>  (93) 
(2S)-2-amino-3-phenylpropanal

>  <IUPAC_CONDENSED>  (93) 
Phe-al

>  <IUPAC>  (93) 
(2S)-2-amino-3-phenylpropanal

>  <TYPE>  (93) 
C-term cap

>  <CLASS>  (93) 
c_cap

>  <ANALOG>  (93) 
X

>  <MOL_WT>  (93) 
149.19299999999998

>  <LOGP>  (93) 
0.7552999999999994

>  <TPSA>  (93) 
43.09

>  <POPULARITY>  (93) 
31.2

>  <PROTECTED>  (93) 
FALSE

>  <SMILES>  (93) 
N[C@H](C=O)Cc1ccccc1

>  <INCHIKEY>  (93) 
CQIUZHAQYHXKRY-VIFPVBQESA-N

$$$$
Arg-benzothiazol-2-yl
     RDKit          2D

 20 21  0  0  0  0  0  0  0  0999 V2000
   -0.3741    1.3134    0.0000 N   0  0  0  0  0  0  0  0  0  0  0  0
   -0.6676   -0.1576    0.0000 C   0  0  0  0  0  0  0  0  0  0  0  0
   -2.0883   -0.6389    0.0000 C   0  0  0  0  0  0  0  0  0  0  0  0
   -3.2154    0.3508    0.0000 C   0  0  0  0  0  0  0  0  0  0  0  0
   -4.6361   -0.1305    0.0000 C   0  0  0  0  0  0  0  0  0  0  0  0
   -5.7633    0.8591    0.0000 N   0  0  0  0  0  0  0  0  0  0  0  0
   -7.1840    0.3778    0.0000 C   0  0  0  0  0  0  0  0  0  0  0  0
   -7.4775   -1.0932    0.0000 N   0  0  0  0  0  0  0  0  0  0  0  0
   -8.3112    1.3675    0.0000 N   0  0  0  0  0  0  0  0  0  0  0  0
    0.4596   -1.1473    0.0000 C   0  0  0  0  0  0  0  0  0  0  0  0
    0.1661   -2.6183    0.0000 O   0  0  0  0  0  0  0  0  0  0  0  0
    1.8803   -0.6660    0.0000 C   0  0  0  0  0  0  0  0  0  0  0  0
    3.1047   -1.5324    0.0000 S   0  0  0  0  0  0  0  0  0  0  0  0
    4.3071   -0.6356    0.0000 C   0  0  0  0  0  0  0  0  0  0  0  0
    5.7781   -0.9291    0.0000 C   0  0  0  0  0  0  0  0  0  0  0  0
    6.7678    0.1980    0.0000 C   0  0  0  0  0  0  0  0  0  0  0  0
    6.2865    1.6187    0.0000 C   0  0  0  0  0  0  0  0  0  0  0  0
    4.8155    1.9122    0.0000 C   0  0  0  0  0  0  0  0  0  0  0  0
    3.8258    0.7850    0.0000 C   0  0  0  0  0  0  0  0  0  0  0  0
    2.3259    0.7663    0.0000 N   0  0  0  0  0  0  0  0  0  0  0  0
  2  1  1  6
  2  3  1  0
  3  4  1  0
  4  5  1  0
  5  6  1  0
  6  7  1  0
  7  8  2  0
  7  9  1  0
  2 10  1  0
 10 11  2  0
 10 12  1  0
 12 13  1  0
 13 14  1  0
 14 15  2  0
 15 16  1  0
 16 17  2  0
 17 18  1  0
 18 19  2  0
 19 20  1  0
 19 14  1  0
 20 12  2  0
M  END
>  <rName>  (94) 
Arg-benzothiazol-2-yl

>  <PQ_SYMBOL>  (94) 
Arg-benzothiazol-2-yl

>  <FULL_NAME>  (94) 
2-[(4S)-4-amino-5-(1,3-benzothiazol-2-yl)-5-oxopentyl]guanidine

>  <IUPAC_CONDENSED>  (94) 
Arg-benzothiazol-2-yl

>  <IUPAC>  (94) 
(2S)-2-amino-5-(((amino)(imino)methyl)amino)-1-(benzothiazol-2-yl)pentan-1-one

>  <TYPE>  (94) 
C-term cap

>  <CLASS>  (94) 
c_cap

>  <ANALOG>  (94) 
X

>  <MOL_WT>  (94) 
291.38000000000005

>  <LOGP>  (94) 
1.0695699999999997

>  <TPSA>  (94) 
117.88000000000001

>  <POPULARITY>  (94) 
15.5

>  <PROTECTED>  (94) 
FALSE

>  <SMILES>  (94) 
N[C@@H](CCCNC(=N)N)C(=O)c2sc1ccccc1n2

>  <INCHIKEY>  (94) 
MAJHCCQPIDXPAN-QMMMGPOBSA-N

$$$$
Tf-Val
     RDKit          2D

 15 14  0  0  0  0  0  0  0  0999 V2000
    1.9607   -1.4064    0.0000 F   0  0  0  0  0  0  0  0  0  0  0  0
    2.5357   -0.0209    0.0000 C   0  0  0  0  0  0  0  0  0  0  0  0
    3.1106    1.3645    0.0000 F   0  0  0  0  0  0  0  0  0  0  0  0
    3.9211   -0.5959    0.0000 F   0  0  0  0  0  0  0  0  0  0  0  0
    1.1502    0.5540    0.0000 S   0  0  0  0  0  0  0  0  0  0  0  0
    0.5753   -0.8314    0.0000 O   0  0  0  0  0  0  0  0  0  0  0  0
    1.7252    1.9395    0.0000 O   0  0  0  0  0  0  0  0  0  0  0  0
   -0.2352    1.1290    0.0000 N   0  0  0  0  0  0  0  0  0  0  0  0
   -1.4258    0.2167    0.0000 C   0  0  0  0  0  0  0  0  0  0  0  0
   -2.8113    0.7917    0.0000 C   0  0  0  0  0  0  0  0  0  0  0  0
   -3.0060    2.2790    0.0000 C   0  0  0  0  0  0  0  0  0  0  0  0
   -4.0019   -0.1206    0.0000 C   0  0  0  0  0  0  0  0  0  0  0  0
   -1.2311   -1.2706    0.0000 C   0  0  0  0  0  0  0  0  0  0  0  0
   -2.4217   -2.1829    0.0000 O   0  0  0  0  0  0  0  0  0  0  0  0
    0.1543   -1.8456    0.0000 O   0  0  0  0  0  0  0  0  0  0  0  0
  1  2  1  0
  2  3  1  0
  2  4  1  0
  2  5  1  0
  5  6  2  0
  5  7  2  0
  5  8  1  0
  9  8  1  6
  9 10  1  0
 10 11  1  0
 10 12  1  0
  9 13  1  0
 13 14  2  0
 13 15  1  0
M  END
>  <rName>  (95) 
Tf-Val

>  <PQ_SYMBOL>  (95) 
Tf-Val

>  <FULL_NAME>  (95) 
(2S)-3-methyl-2-(trifluoromethylsulfonylamino)butanoic acid

>  <IUPAC_CONDENSED>  (95) 
Tf-Val

>  <IUPAC>  (95) 
(2S)-3-methyl-2-(trifluoromethylsulfonylamino)butanoic acid

>  <TYPE>  (95) 
N-term cap

>  <CLASS>  (95) 
n_cap

>  <ANALOG>  (95) 
X

>  <MOL_WT>  (95) 
249.21

>  <LOGP>  (95) 
0.5347999999999999

>  <TPSA>  (95) 
83.47

>  <POPULARITY>  (95) 
6

>  <PROTECTED>  (95) 
TRUE

>  <SMILES>  (95) 
FC(F)(F)S(=O)(=O)N[C@@H](C(C)C)C(=O)O

>  <INCHIKEY>  (95) 
UJMLUEWCAMFOKZ-BYPYZUCNSA-N

$$$$
Ac5c-OMe
     RDKit          2D

 10 10  0  0  0  0  0  0  0  0999 V2000
    0.3447   -1.6428    0.0000 N   0  0  0  0  0  0  0  0  0  0  0  0
   -0.4104   -0.3468    0.0000 C   0  0  0  0  0  0  0  0  0  0  0  0
   -0.8796    1.0780    0.0000 C   0  0  0  0  0  0  0  0  0  0  0  0
   -2.3796    1.0720    0.0000 C   0  0  0  0  0  0  0  0  0  0  0  0
   -2.8374   -0.3564    0.0000 C   0  0  0  0  0  0  0  0  0  0  0  0
   -1.6204   -1.2333    0.0000 C   0  0  0  0  0  0  0  0  0  0  0  0
    0.9575    0.2688    0.0000 C   0  0  0  0  0  0  0  0  0  0  0  0
    1.1083    1.7612    0.0000 O   0  0  0  0  0  0  0  0  0  0  0  0
    2.1745   -0.6081    0.0000 O   0  0  0  0  0  0  0  0  0  0  0  0
    3.5424    0.0075    0.0000 C   0  0  0  0  0  0  0  0  0  0  0  0
  1  2  1  0
  2  3  1  0
  3  4  1  0
  4  5  1  0
  5  6  1  0
  2  7  1  0
  7  8  2  0
  7  9  1  0
  9 10  1  0
  6  2  1  0
M  END
>  <rName>  (96) 
Ac5c-OMe

>  <PQ_SYMBOL>  (96) 
Ac5c-OMe

>  <FULL_NAME>  (96) 
1-amino-1-carboxycyclopentane methyl ester

>  <IUPAC_CONDENSED>  (96) 
Ac5c-OMe

>  <IUPAC>  (96) 
methyl 1-aminocyclopentanecarboxylate

>  <TYPE>  (96) 
C-term cap

>  <CLASS>  (96) 
c_cap

>  <ANALOG>  (96) 
X

>  <MOL_WT>  (96) 
143.186

>  <LOGP>  (96) 
0.43089999999999984

>  <TPSA>  (96) 
52.32000000000001

>  <POPULARITY>  (96) 
8

>  <PROTECTED>  (96) 
TRUE

>  <SMILES>  (96) 
NC1(CCCC1)C(=O)OC

>  <INCHIKEY>  (96) 
VLNNACMZTDZCFH-UHFFFAOYSA-N

$$$$
His-OBn
     RDKit          2D

 18 19  0  0  0  0  0  0  0  0999 V2000
   -1.5514    1.2620    0.0000 N   0  0  0  0  0  0  0  0  0  0  0  0
   -1.5730   -0.2378    0.0000 C   0  0  0  0  0  0  0  0  0  0  0  0
   -2.8828   -0.9690    0.0000 C   0  0  0  0  0  0  0  0  0  0  0  0
   -4.1708   -0.2003    0.0000 C   0  0  0  0  0  0  0  0  0  0  0  0
   -5.5498   -0.7905    0.0000 C   0  0  0  0  0  0  0  0  0  0  0  0
   -6.5373    0.3386    0.0000 N   0  0  0  0  0  0  0  0  0  0  0  0
   -5.7686    1.6266    0.0000 C   0  0  0  0  0  0  0  0  0  0  0  0
   -4.3061    1.2936    0.0000 N   0  0  0  0  0  0  0  0  0  0  0  0
   -0.2850   -1.0065    0.0000 C   0  0  0  0  0  0  0  0  0  0  0  0
   -0.3067   -2.5064    0.0000 O   0  0  0  0  0  0  0  0  0  0  0  0
    1.0248   -0.2754    0.0000 O   0  0  0  0  0  0  0  0  0  0  0  0
    2.3128   -1.0441    0.0000 C   0  0  0  0  0  0  0  0  0  0  0  0
    3.6226   -0.3129    0.0000 C   0  0  0  0  0  0  0  0  0  0  0  0
    4.9106   -1.0816    0.0000 C   0  0  0  0  0  0  0  0  0  0  0  0
    6.2204   -0.3505    0.0000 C   0  0  0  0  0  0  0  0  0  0  0  0
    6.2421    1.1494    0.0000 C   0  0  0  0  0  0  0  0  0  0  0  0
    4.9540    1.9180    0.0000 C   0  0  0  0  0  0  0  0  0  0  0  0
    3.6443    1.1869    0.0000 C   0  0  0  0  0  0  0  0  0  0  0  0
  2  1  1  6
  2  3  1  0
  3  4  1  0
  4  5  2  0
  5  6  1  0
  6  7  1  0
  7  8  2  0
  2  9  1  0
  9 10  2  0
  9 11  1  0
 11 12  1  0
 12 13  1  0
 13 14  2  0
 14 15  1  0
 15 16  2  0
 16 17  1  0
 17 18  2  0
 18 13  1  0
  8  4  1  0
M  END
>  <rName>  (97) 
His-OBn

>  <PQ_SYMBOL>  (97) 
His-OBn

>  <FULL_NAME>  (97) 
Histidine benzyl ester

>  <IUPAC_CONDENSED>  (97) 
His-OBn

>  <IUPAC>  (97) 
benzyl (2S)-2-amino-3-(1H-imidazol-4-yl)propanoate

>  <TYPE>  (97) 
C-term cap

>  <CLASS>  (97) 
c_cap

>  <ANALOG>  (97) 
X

>  <MOL_WT>  (97) 
245.28199999999998

>  <LOGP>  (97) 
1.0228999999999993

>  <TPSA>  (97) 
81.00000000000001

>  <POPULARITY>  (97) 
5.7

>  <PROTECTED>  (97) 
TRUE

>  <SMILES>  (97) 
N[C@@H](Cc2(c[nH]cn2))C(=O)OCc1ccccc1

>  <INCHIKEY>  (97) 
AXIQMEOYYYWDKF-LBPRGKRZSA-N

$$$$
Trp-OEt
     RDKit          2D

 17 18  0  0  0  0  0  0  0  0999 V2000
   -1.7497    1.7769    0.0000 N   0  0  0  0  0  0  0  0  0  0  0  0
   -1.7228    0.2772    0.0000 C   0  0  0  0  0  0  0  0  0  0  0  0
   -3.0082   -0.4960    0.0000 C   0  0  0  0  0  0  0  0  0  0  0  0
   -2.9813   -1.9958    0.0000 O   0  0  0  0  0  0  0  0  0  0  0  0
   -4.3205    0.2306    0.0000 O   0  0  0  0  0  0  0  0  0  0  0  0
   -5.6058   -0.5426    0.0000 C   0  0  0  0  0  0  0  0  0  0  0  0
   -6.9181    0.1840    0.0000 C   0  0  0  0  0  0  0  0  0  0  0  0
   -0.4105   -0.4494    0.0000 C   0  0  0  0  0  0  0  0  0  0  0  0
    0.8749    0.3238    0.0000 C   0  0  0  0  0  0  0  0  0  0  0  0
    2.2559   -0.2617    0.0000 C   0  0  0  0  0  0  0  0  0  0  0  0
    2.7449   -1.6797    0.0000 C   0  0  0  0  0  0  0  0  0  0  0  0
    4.2175   -1.9652    0.0000 C   0  0  0  0  0  0  0  0  0  0  0  0
    5.2011   -0.8327    0.0000 C   0  0  0  0  0  0  0  0  0  0  0  0
    4.7120    0.5854    0.0000 C   0  0  0  0  0  0  0  0  0  0  0  0
    3.2394    0.8709    0.0000 C   0  0  0  0  0  0  0  0  0  0  0  0
    2.4663    2.1563    0.0000 N   0  0  0  0  0  0  0  0  0  0  0  0
    1.0049    1.8181    0.0000 C   0  0  0  0  0  0  0  0  0  0  0  0
  2  1  1  1
  2  3  1  0
  3  4  2  0
  3  5  1  0
  5  6  1  0
  6  7  1  0
  2  8  1  0
  8  9  1  0
  9 10  1  0
 10 11  2  0
 11 12  1  0
 12 13  2  0
 13 14  1  0
 14 15  2  0
 15 16  1  0
 16 17  1  0
 15 10  1  0
 17  9  2  0
M  END
>  <rName>  (98) 
Trp-OEt

>  <PQ_SYMBOL>  (98) 
Trp-OEt

>  <FULL_NAME>  (98) 
ethyl (2S)-2-amino-3-(1H-indol-3-yl)propanoate

>  <IUPAC_CONDENSED>  (98) 
Trp-OEt

>  <IUPAC>  (98) 
ethyl (2S)-2-amino-3-(1H-indol-3-yl)propanoate

>  <TYPE>  (98) 
C-term cap

>  <CLASS>  (98) 
c_cap

>  <ANALOG>  (98) 
X

>  <MOL_WT>  (98) 
232.28300000000004

>  <LOGP>  (98) 
1.6008

>  <TPSA>  (98) 
68.11000000000001

>  <POPULARITY>  (98) 
9.5

>  <PROTECTED>  (98) 
TRUE

>  <SMILES>  (98) 
N[C@H](C(=O)OCC)Cc2c1ccccc1[nH]c2

>  <INCHIKEY>  (98) 
DABYEOZXRSTEGL-NSHDSACASA-N

$$$$
NMe-D-Cha-
     RDKit          2D

 13 13  0  0  0  0  0  0  0  0999 V2000
   -1.1846    1.3730    0.0000 N   0  0  0  0  0  0  0  0  0  0  0  0
   -2.3388    2.3311    0.0000 C   0  0  0  0  0  0  0  0  0  0  0  0
   -1.4373   -0.1056    0.0000 C   0  0  0  0  0  0  0  0  0  0  0  0
   -0.2831   -1.0637    0.0000 C   0  0  0  0  0  0  0  0  0  0  0  0
    1.1237   -0.5432    0.0000 C   0  0  0  0  0  0  0  0  0  0  0  0
    1.3763    0.9354    0.0000 C   0  0  0  0  0  0  0  0  0  0  0  0
    2.7831    1.4559    0.0000 C   0  0  0  0  0  0  0  0  0  0  0  0
    3.9373    0.4978    0.0000 C   0  0  0  0  0  0  0  0  0  0  0  0
    3.6846   -0.9808    0.0000 C   0  0  0  0  0  0  0  0  0  0  0  0
    2.2778   -1.5013    0.0000 C   0  0  0  0  0  0  0  0  0  0  0  0
   -2.8441   -0.6260    0.0000 C   0  0  0  0  0  0  0  0  0  0  0  0
   -3.0967   -2.1046    0.0000 O   0  0  0  0  0  0  0  0  0  0  0  0
   -3.9982    0.3321    0.0000 O   0  0  0  0  0  0  0  0  0  0  0  0
  1  2  1  0
  1  3  1  0
  3  4  1  6
  4  5  1  0
  5  6  1  0
  6  7  1  0
  7  8  1  0
  8  9  1  0
  9 10  1  0
  3 11  1  0
 11 12  2  0
 11 13  1  0
 10  5  1  0
M  END
>  <rName>  (99) 
NMe-D-Cha-

>  <PQ_SYMBOL>  (99) 
NMe-D-Cha-

>  <FULL_NAME>  (99) 
methyl D-2-Amino-3-cyclohexyl-propionic acid

>  <IUPAC_CONDENSED>  (99) 
Me-D-Cha

>  <IUPAC>  (99) 
(2R)-3-cyclohexyl-2-(methylamino)propanoic acid

>  <TYPE>  (99) 
N-term cap

>  <CLASS>  (99) 
n_cap

>  <ANALOG>  (99) 
X

>  <MOL_WT>  (99) 
185.267

>  <LOGP>  (99) 
1.6294

>  <TPSA>  (99) 
49.33

>  <POPULARITY>  (99) 
11.9

>  <PROTECTED>  (99) 
TRUE

>  <SMILES>  (99) 
N(C)[C@H](CC1(CCCCC1))C(=O)O

>  <INCHIKEY>  (99) 
GBMDYACPQYNUGA-SECBINFHSA-N

$$$$
trans-Ac4c_3MeOH
     RDKit          2D

 10 10  0  0  0  0  0  0  0  0999 V2000
    1.7158   -1.5519    0.0000 N   0  0  0  0  0  0  0  0  0  0  0  0
    0.6818   -0.4652    0.0000 C   0  0  0  0  0  0  0  0  0  0  0  0
   -0.4049   -1.4992    0.0000 C   0  0  0  0  0  0  0  0  0  0  0  0
   -1.4388   -0.4124    0.0000 C   0  0  0  0  0  0  0  0  0  0  0  0
   -2.9384   -0.3751    0.0000 C   0  0  0  0  0  0  0  0  0  0  0  0
   -3.6558    0.9422    0.0000 O   0  0  0  0  0  0  0  0  0  0  0  0
   -0.3521    0.6215    0.0000 C   0  0  0  0  0  0  0  0  0  0  0  0
    1.7686    0.5687    0.0000 C   0  0  0  0  0  0  0  0  0  0  0  0
    1.4165    2.0268    0.0000 O   0  0  0  0  0  0  0  0  0  0  0  0
    3.2073    0.1446    0.0000 O   0  0  0  0  0  0  0  0  0  0  0  0
  2  1  1  1
  2  3  1  0
  3  4  1  0
  4  5  1  6
  5  6  1  0
  4  7  1  0
  2  8  1  0
  8  9  2  0
  8 10  1  0
  7  2  1  0
M  END
>  <rName>  (100) 
trans-Ac4c_3MeOH

>  <PQ_SYMBOL>  (100) 
trans-Ac4c_3MeOH

>  <FULL_NAME>  (100) 
1-amino-3-(hydroxymethyl)cyclobutane-1-carboxylic acid

>  <IUPAC_CONDENSED>  (100) 
trans-Ac4c(3-MeOH)

>  <IUPAC>  (100) 
(1R,3S)-1-amino-3-(hydroxymethyl)cyclobutane-1-carboxylic acid

>  <TYPE>  (100) 
N-term cap

>  <CLASS>  (100) 
n_cap

>  <ANALOG>  (100) 
X

>  <MOL_WT>  (100) 
145.15800000000002

>  <LOGP>  (100) 
-0.8292000000000004

>  <TPSA>  (100) 
83.55

>  <POPULARITY>  (100) 
7.1

>  <PROTECTED>  (100) 
TRUE

>  <SMILES>  (100) 
N[C@]1(C[C@H](CO)C1)C(=O)O

>  <INCHIKEY>  (100) 
URCBHRLIPUAWTF-DTXYKFKXSA-N

$$$$
R-6-benzylpiperazin-2-one
     RDKit          2D

 14 15  0  0  0  0  0  0  0  0999 V2000
    3.6106   -1.2140    0.0000 N   0  0  0  0  0  0  0  0  0  0  0  0
    2.2448   -1.8342    0.0000 C   0  0  0  0  0  0  0  0  0  0  0  0
    1.0248   -0.9614    0.0000 C   0  0  0  0  0  0  0  0  0  0  0  0
    1.1707    0.5315    0.0000 N   0  0  0  0  0  0  0  0  0  0  0  0
    2.5365    1.1516    0.0000 C   0  0  0  0  0  0  0  0  0  0  0  0
    2.6824    2.6445    0.0000 O   0  0  0  0  0  0  0  0  0  0  0  0
    3.7565    0.2788    0.0000 C   0  0  0  0  0  0  0  0  0  0  0  0
   -0.3410   -1.5815    0.0000 C   0  0  0  0  0  0  0  0  0  0  0  0
   -1.5609   -0.7087    0.0000 C   0  0  0  0  0  0  0  0  0  0  0  0
   -1.4151    0.7842    0.0000 C   0  0  0  0  0  0  0  0  0  0  0  0
   -2.6350    1.6570    0.0000 C   0  0  0  0  0  0  0  0  0  0  0  0
   -4.0008    1.0369    0.0000 C   0  0  0  0  0  0  0  0  0  0  0  0
   -4.1467   -0.4560    0.0000 C   0  0  0  0  0  0  0  0  0  0  0  0
   -2.9268   -1.3288    0.0000 C   0  0  0  0  0  0  0  0  0  0  0  0
  1  2  1  0
  2  3  1  0
  3  4  1  0
  4  5  1  0
  5  6  2  0
  5  7  1  0
  3  8  1  1
  8  9  1  0
  9 10  2  0
 10 11  1  0
 11 12  2  0
 12 13  1  0
 13 14  2  0
 14  9  1  0
  7  1  1  0
M  END
>  <rName>  (101) 
R-6-benzylpiperazin-2-one

>  <PQ_SYMBOL>  (101) 
R-6-benzylpiperazin-2-one

>  <FULL_NAME>  (101) 
(6R)-6-benzylpiperazin-2-one

>  <IUPAC_CONDENSED>  (101) 
R-6-benzylpiperazin-2-one

>  <IUPAC>  (101) 
(6R)-6-benzylpiperazin-2-one

>  <TYPE>  (101) 
C-term cap

>  <CLASS>  (101) 
c_cap

>  <ANALOG>  (101) 
X

>  <MOL_WT>  (101) 
190.24600000000004

>  <LOGP>  (101) 
0.3170999999999997

>  <TPSA>  (101) 
41.129999999999995

>  <POPULARITY>  (101) 
10

>  <PROTECTED>  (101) 
TRUE

>  <SMILES>  (101) 
N2C[C@H](NC(=O)C2)Cc1ccccc1

>  <INCHIKEY>  (101) 
PGNYGDAFMUYUNJ-SNVBAGLBSA-N

$$$$
Dan-Ala
     RDKit          2D

 22 23  0  0  0  0  0  0  0  0999 V2000
    5.2231    1.9220    0.0000 C   0  0  0  0  0  0  0  0  0  0  0  0
    4.3503    0.7021    0.0000 N   0  0  0  0  0  0  0  0  0  0  0  0
    4.9704   -0.6637    0.0000 C   0  0  0  0  0  0  0  0  0  0  0  0
    2.8574    0.8480    0.0000 C   0  0  0  0  0  0  0  0  0  0  0  0
    1.9846   -0.3719    0.0000 C   0  0  0  0  0  0  0  0  0  0  0  0
    0.4917   -0.2260    0.0000 C   0  0  0  0  0  0  0  0  0  0  0  0
   -0.1284    1.1398    0.0000 C   0  0  0  0  0  0  0  0  0  0  0  0
    0.7444    2.3597    0.0000 C   0  0  0  0  0  0  0  0  0  0  0  0
    2.2373    2.2138    0.0000 C   0  0  0  0  0  0  0  0  0  0  0  0
   -0.3811   -1.4460    0.0000 C   0  0  0  0  0  0  0  0  0  0  0  0
    0.2390   -2.8118    0.0000 C   0  0  0  0  0  0  0  0  0  0  0  0
    1.7319   -2.9577    0.0000 C   0  0  0  0  0  0  0  0  0  0  0  0
    2.6047   -1.7378    0.0000 C   0  0  0  0  0  0  0  0  0  0  0  0
   -1.8740   -1.3001    0.0000 S   0  0  0  0  0  0  0  0  0  0  0  0
   -2.0199   -2.7930    0.0000 O   0  0  0  0  0  0  0  0  0  0  0  0
   -1.7281    0.1928    0.0000 O   0  0  0  0  0  0  0  0  0  0  0  0
   -3.3669   -1.1542    0.0000 N   0  0  0  0  0  0  0  0  0  0  0  0
   -3.9870    0.2116    0.0000 C   0  0  0  0  0  0  0  0  0  0  0  0
   -5.4798    0.3575    0.0000 C   0  0  0  0  0  0  0  0  0  0  0  0
   -3.1142    1.4316    0.0000 C   0  0  0  0  0  0  0  0  0  0  0  0
   -1.6213    1.2857    0.0000 O   0  0  0  0  0  0  0  0  0  0  0  0
   -3.7343    2.7974    0.0000 O   0  0  0  0  0  0  0  0  0  0  0  0
  1  2  1  0
  2  3  1  0
  2  4  1  0
  4  5  1  0
  5  6  1  0
  6  7  1  0
  7  8  2  0
  8  9  1  0
  6 10  2  0
 10 11  1  0
 11 12  2  0
 12 13  1  0
 10 14  1  0
 14 15  2  0
 14 16  2  0
 14 17  1  0
 17 18  1  0
 18 19  1  1
 18 20  1  0
 20 21  2  0
 20 22  1  0
 13  5  2  0
  9  4  2  0
M  END
>  <rName>  (102) 
Dan-Ala

>  <PQ_SYMBOL>  (102) 
Dan-Ala

>  <FULL_NAME>  (102) 
(2S)-2-[[5-(dimethylamino)naphthalen-1-yl]sulfonylamino]propanoic acid

>  <IUPAC_CONDENSED>  (102) 
Dan-Ala

>  <IUPAC>  (102) 
(2S)-2-(5-(dimethylamino)naphthalen-1-ylsulfonylamino)propanoic acid

>  <TYPE>  (102) 
N-term cap

>  <CLASS>  (102) 
n_cap

>  <ANALOG>  (102) 
X

>  <MOL_WT>  (102) 
322.3860000000001

>  <LOGP>  (102) 
1.6572

>  <TPSA>  (102) 
86.71000000000001

>  <POPULARITY>  (102) 
7.6

>  <PROTECTED>  (102) 
TRUE

>  <SMILES>  (102) 
CN(C)c2c1c(ccc2)c(ccc1)S(=O)(=O)N[C@@H](C)C(=O)O

>  <INCHIKEY>  (102) 
JCIYZTBXUJCAMW-JTQLQIEISA-N

$$$$
Dan-Gly
     RDKit          2D

 21 22  0  0  0  0  0  0  0  0999 V2000
    5.5275    1.8273    0.0000 C   0  0  0  0  0  0  0  0  0  0  0  0
    4.5857    0.6599    0.0000 N   0  0  0  0  0  0  0  0  0  0  0  0
    5.1259   -0.7395    0.0000 C   0  0  0  0  0  0  0  0  0  0  0  0
    3.1038    0.8918    0.0000 C   0  0  0  0  0  0  0  0  0  0  0  0
    2.1619   -0.2757    0.0000 C   0  0  0  0  0  0  0  0  0  0  0  0
    0.6800   -0.0438    0.0000 C   0  0  0  0  0  0  0  0  0  0  0  0
    0.1398    1.3556    0.0000 C   0  0  0  0  0  0  0  0  0  0  0  0
    1.0816    2.5230    0.0000 C   0  0  0  0  0  0  0  0  0  0  0  0
    2.5636    2.2911    0.0000 C   0  0  0  0  0  0  0  0  0  0  0  0
   -0.2618   -1.2113    0.0000 C   0  0  0  0  0  0  0  0  0  0  0  0
    0.2783   -2.6106    0.0000 C   0  0  0  0  0  0  0  0  0  0  0  0
    1.7603   -2.8425    0.0000 C   0  0  0  0  0  0  0  0  0  0  0  0
    2.7021   -1.6751    0.0000 C   0  0  0  0  0  0  0  0  0  0  0  0
   -1.7438   -0.9794    0.0000 S   0  0  0  0  0  0  0  0  0  0  0  0
   -1.9757   -2.4613    0.0000 O   0  0  0  0  0  0  0  0  0  0  0  0
   -1.5119    0.5026    0.0000 O   0  0  0  0  0  0  0  0  0  0  0  0
   -3.2258   -0.7475    0.0000 N   0  0  0  0  0  0  0  0  0  0  0  0
   -3.7659    0.6519    0.0000 C   0  0  0  0  0  0  0  0  0  0  0  0
   -5.2479    0.8838    0.0000 C   0  0  0  0  0  0  0  0  0  0  0  0
   -6.1897   -0.2836    0.0000 O   0  0  0  0  0  0  0  0  0  0  0  0
   -5.7880    2.2832    0.0000 O   0  0  0  0  0  0  0  0  0  0  0  0
  1  2  1  0
  2  3  1  0
  2  4  1  0
  4  5  1  0
  5  6  1  0
  6  7  1  0
  7  8  2  0
  8  9  1  0
  6 10  2  0
 10 11  1  0
 11 12  2  0
 12 13  1  0
 10 14  1  0
 14 15  2  0
 14 16  2  0
 14 17  1  0
 17 18  1  0
 18 19  1  0
 19 20  2  0
 19 21  1  0
 13  5  2  0
  9  4  2  0
M  END
>  <rName>  (103) 
Dan-Gly

>  <PQ_SYMBOL>  (103) 
Dan-Gly

>  <FULL_NAME>  (103) 
2-[[5-(dimethylamino)naphthalen-1-yl]sulfonylamino]acetic acid

>  <IUPAC_CONDENSED>  (103) 
Dan-Gly

>  <IUPAC>  (103) 
2-(5-(dimethylamino)naphthalen-1-ylsulfonylamino)acetic acid

>  <TYPE>  (103) 
N-term cap

>  <CLASS>  (103) 
n_cap

>  <ANALOG>  (103) 
X

>  <MOL_WT>  (103) 
308.3590000000001

>  <LOGP>  (103) 
1.2687000000000002

>  <TPSA>  (103) 
86.71000000000001

>  <POPULARITY>  (103) 
17

>  <PROTECTED>  (103) 
TRUE

>  <SMILES>  (103) 
CN(C)c2c1c(ccc2)c(ccc1)S(=O)(=O)NCC(=O)O

>  <INCHIKEY>  (103) 
QHFXORCWAQTTGH-UHFFFAOYSA-N

$$$$
D-Leu-OMe
     RDKit          2D

 10  9  0  0  0  0  0  0  0  0999 V2000
    0.1391    1.7243    0.0000 N   0  0  0  0  0  0  0  0  0  0  0  0
   -0.0935    0.2424    0.0000 C   0  0  0  0  0  0  0  0  0  0  0  0
   -1.4930   -0.2972    0.0000 C   0  0  0  0  0  0  0  0  0  0  0  0
   -1.7256   -1.7790    0.0000 O   0  0  0  0  0  0  0  0  0  0  0  0
   -2.6601    0.6451    0.0000 O   0  0  0  0  0  0  0  0  0  0  0  0
   -4.0597    0.1056    0.0000 C   0  0  0  0  0  0  0  0  0  0  0  0
    1.0736   -0.6999    0.0000 C   0  0  0  0  0  0  0  0  0  0  0  0
    2.4732   -0.1603    0.0000 C   0  0  0  0  0  0  0  0  0  0  0  0
    3.6403   -1.1026    0.0000 C   0  0  0  0  0  0  0  0  0  0  0  0
    2.7057    1.3216    0.0000 C   0  0  0  0  0  0  0  0  0  0  0  0
  2  1  1  6
  2  3  1  0
  3  4  2  0
  3  5  1  0
  5  6  1  0
  2  7  1  0
  7  8  1  0
  8  9  1  0
  8 10  1  0
M  END
>  <rName>  (104) 
D-Leu-OMe

>  <PQ_SYMBOL>  (104) 
D-Leu-OMe

>  <FULL_NAME>  (104) 
D-Leucine methyl ester

>  <IUPAC_CONDENSED>  (104) 
D-Leu-OMe

>  <IUPAC>  (104) 
methyl (2R)-2-amino-4-methylpentanoate

>  <TYPE>  (104) 
C-term cap

>  <CLASS>  (104) 
c_cap

>  <ANALOG>  (104) 
X

>  <MOL_WT>  (104) 
145.20199999999997

>  <LOGP>  (104) 
0.5327999999999997

>  <TPSA>  (104) 
52.32000000000001

>  <POPULARITY>  (104) 
14.3

>  <PROTECTED>  (104) 
TRUE

>  <SMILES>  (104) 
N[C@@H](C(=O)OC)CC(C)C

>  <INCHIKEY>  (104) 
QVDXUKJJGUSGLS-ZCFIWIBFSA-N

$$$$
quinazolinedione-3-acetyl
     RDKit          2D

 16 17  0  0  0  0  0  0  0  0999 V2000
    4.1874    0.4399    0.0000 C   0  0  0  0  0  0  0  0  0  0  0  0
    3.3978   -0.8355    0.0000 C   0  0  0  0  0  0  0  0  0  0  0  0
    1.8985   -0.7894    0.0000 C   0  0  0  0  0  0  0  0  0  0  0  0
    1.1090   -2.0648    0.0000 N   0  0  0  0  0  0  0  0  0  0  0  0
   -0.3903   -2.0187    0.0000 C   0  0  0  0  0  0  0  0  0  0  0  0
   -1.1799   -3.2941    0.0000 O   0  0  0  0  0  0  0  0  0  0  0  0
   -1.1001   -0.6972    0.0000 N   0  0  0  0  0  0  0  0  0  0  0  0
   -0.3105    0.5781    0.0000 C   0  0  0  0  0  0  0  0  0  0  0  0
   -1.0203    1.8996    0.0000 O   0  0  0  0  0  0  0  0  0  0  0  0
    1.1888    0.5321    0.0000 C   0  0  0  0  0  0  0  0  0  0  0  0
    1.9783    1.8074    0.0000 C   0  0  0  0  0  0  0  0  0  0  0  0
    3.4776    1.7614    0.0000 C   0  0  0  0  0  0  0  0  0  0  0  0
   -2.5994   -0.6512    0.0000 C   0  0  0  0  0  0  0  0  0  0  0  0
   -3.3091    0.6703    0.0000 C   0  0  0  0  0  0  0  0  0  0  0  0
   -2.5195    1.9457    0.0000 O   0  0  0  0  0  0  0  0  0  0  0  0
   -4.8084    0.7164    0.0000 O   0  0  0  0  0  0  0  0  0  0  0  0
  1  2  1  0
  2  3  2  0
  3  4  1  0
  4  5  1  0
  5  6  2  0
  5  7  1  0
  7  8  1  0
  8  9  2  0
  8 10  1  0
 10 11  2  0
 11 12  1  0
  7 13  1  0
 13 14  1  0
 14 15  2  0
 14 16  1  0
 10  3  1  0
 12  1  2  0
M  END
>  <rName>  (105) 
quinazolinedione-3-acetyl

>  <PQ_SYMBOL>  (105) 
quinazolinedione-3-acetyl

>  <FULL_NAME>  (105) 
2-(2,4-dioxo-1H-quinazolin-3-yl)acetic acid

>  <IUPAC_CONDENSED>  (105) 
quinazolinedione-3-acetyl

>  <IUPAC>  (105) 
2-(3,5-dioxo-2,4-diazabicyclo[4.4.0]deca-1(6),7,9-trien-4-yl)acetic acid

>  <TYPE>  (105) 
N-term cap

>  <CLASS>  (105) 
n_cap

>  <ANALOG>  (105) 
X

>  <MOL_WT>  (105) 
220.18399999999997

>  <LOGP>  (105) 
-0.22560000000000008

>  <TPSA>  (105) 
92.16000000000001

>  <POPULARITY>  (105) 
8.5

>  <PROTECTED>  (105) 
TRUE

>  <SMILES>  (105) 
c2cc1[nH]c(=O)n(c(=O)c1cc2)CC(=O)O

>  <INCHIKEY>  (105) 
RQQGYSJFFRKGNY-UHFFFAOYSA-N

$$$$
EtOCO-D-Ala
     RDKit          2D

 11 10  0  0  0  0  0  0  0  0999 V2000
   -4.7486   -0.0835    0.0000 C   0  0  0  0  0  0  0  0  0  0  0  0
   -3.3132    0.3521    0.0000 C   0  0  0  0  0  0  0  0  0  0  0  0
   -2.2183   -0.6732    0.0000 O   0  0  0  0  0  0  0  0  0  0  0  0
   -0.7829   -0.2376    0.0000 C   0  0  0  0  0  0  0  0  0  0  0  0
   -0.4425    1.2233    0.0000 O   0  0  0  0  0  0  0  0  0  0  0  0
    0.3120   -1.2629    0.0000 N   0  0  0  0  0  0  0  0  0  0  0  0
    1.7474   -0.8273    0.0000 C   0  0  0  0  0  0  0  0  0  0  0  0
    2.8423   -1.8525    0.0000 C   0  0  0  0  0  0  0  0  0  0  0  0
    2.0878    0.6336    0.0000 C   0  0  0  0  0  0  0  0  0  0  0  0
    0.9929    1.6589    0.0000 O   0  0  0  0  0  0  0  0  0  0  0  0
    3.5232    1.0692    0.0000 O   0  0  0  0  0  0  0  0  0  0  0  0
  1  2  1  0
  2  3  1  0
  3  4  1  0
  4  5  2  0
  4  6  1  0
  6  7  1  0
  7  8  1  1
  7  9  1  0
  9 10  2  0
  9 11  1  0
M  END
>  <rName>  (106) 
EtOCO-D-Ala

>  <PQ_SYMBOL>  (106) 
EtOCO-D-Ala

>  <FULL_NAME>  (106) 
ethylcarboxyl D-Alanine

>  <IUPAC_CONDENSED>  (106) 
EtOCO-D-Ala

>  <IUPAC>  (106) 
(2R)-2-ethoxycarbonylaminopropanoic acid

>  <TYPE>  (106) 
N-term cap

>  <CLASS>  (106) 
n_cap

>  <ANALOG>  (106) 
X

>  <MOL_WT>  (106) 
161.15699999999998

>  <LOGP>  (106) 
0.20560000000000017

>  <TPSA>  (106) 
75.63

>  <POPULARITY>  (106) 
11.3

>  <PROTECTED>  (106) 
TRUE

>  <SMILES>  (106) 
CCOC(=O)N[C@H](C)C(=O)O

>  <INCHIKEY>  (106) 
JYQWKPMPTMJFCY-SCSAIBSYSA-N

$$$$
EtOCO-Phe
     RDKit          2D

 17 17  0  0  0  0  0  0  0  0999 V2000
   -4.1673   -2.1109    0.0000 C   0  0  0  0  0  0  0  0  0  0  0  0
   -4.7552   -0.7309    0.0000 C   0  0  0  0  0  0  0  0  0  0  0  0
   -3.8540    0.4682    0.0000 C   0  0  0  0  0  0  0  0  0  0  0  0
   -2.3650    0.2873    0.0000 C   0  0  0  0  0  0  0  0  0  0  0  0
   -1.7771   -1.0927    0.0000 C   0  0  0  0  0  0  0  0  0  0  0  0
   -2.6783   -2.2918    0.0000 C   0  0  0  0  0  0  0  0  0  0  0  0
   -1.4638    1.4864    0.0000 C   0  0  0  0  0  0  0  0  0  0  0  0
    0.0253    1.3055    0.0000 C   0  0  0  0  0  0  0  0  0  0  0  0
    0.6131   -0.0745    0.0000 N   0  0  0  0  0  0  0  0  0  0  0  0
    2.1022   -0.2554    0.0000 C   0  0  0  0  0  0  0  0  0  0  0  0
    3.0034    0.9437    0.0000 O   0  0  0  0  0  0  0  0  0  0  0  0
    2.6901   -1.6354    0.0000 O   0  0  0  0  0  0  0  0  0  0  0  0
    4.1791   -1.8163    0.0000 C   0  0  0  0  0  0  0  0  0  0  0  0
    4.7670   -3.1963    0.0000 C   0  0  0  0  0  0  0  0  0  0  0  0
    0.9265    2.5046    0.0000 C   0  0  0  0  0  0  0  0  0  0  0  0
    0.3386    3.8846    0.0000 O   0  0  0  0  0  0  0  0  0  0  0  0
    2.4155    2.3237    0.0000 O   0  0  0  0  0  0  0  0  0  0  0  0
  1  2  2  0
  2  3  1  0
  3  4  2  0
  4  5  1  0
  5  6  2  0
  4  7  1  0
  8  7  1  1
  8  9  1  0
  9 10  1  0
 10 11  2  0
 10 12  1  0
 12 13  1  0
 13 14  1  0
  8 15  1  0
 15 16  2  0
 15 17  1  0
  6  1  1  0
M  END
>  <rName>  (107) 
EtOCO-Phe

>  <PQ_SYMBOL>  (107) 
EtOCO-Phe

>  <FULL_NAME>  (107) 
ethylcarboxyl Phenylalanine

>  <IUPAC_CONDENSED>  (107) 
EtOCO-Phe

>  <IUPAC>  (107) 
(2S)-2-ethoxycarbonylamino-3-phenylpropanoic acid

>  <TYPE>  (107) 
N-term cap

>  <CLASS>  (107) 
n_cap

>  <ANALOG>  (107) 
X

>  <MOL_WT>  (107) 
237.25499999999994

>  <LOGP>  (107) 
1.4284

>  <TPSA>  (107) 
75.63

>  <POPULARITY>  (107) 
16.7

>  <PROTECTED>  (107) 
TRUE

>  <SMILES>  (107) 
c1ccc(cc1)C[C@H](NC(=O)OCC)C(=O)O

>  <INCHIKEY>  (107) 
YUBBGLSAFZJOMD-JTQLQIEISA-N

$$$$
Glu-OBn
     RDKit          2D

 17 17  0  0  0  0  0  0  0  0999 V2000
   -1.5999    1.8238    0.0000 N   0  0  0  0  0  0  0  0  0  0  0  0
   -1.8047    0.3378    0.0000 C   0  0  0  0  0  0  0  0  0  0  0  0
   -3.1940   -0.2278    0.0000 C   0  0  0  0  0  0  0  0  0  0  0  0
   -4.3785    0.6926    0.0000 C   0  0  0  0  0  0  0  0  0  0  0  0
   -5.7677    0.1270    0.0000 C   0  0  0  0  0  0  0  0  0  0  0  0
   -5.9726   -1.3590    0.0000 O   0  0  0  0  0  0  0  0  0  0  0  0
   -6.9522    1.0473    0.0000 O   0  0  0  0  0  0  0  0  0  0  0  0
   -0.6202   -0.5825    0.0000 C   0  0  0  0  0  0  0  0  0  0  0  0
   -0.8251   -2.0685    0.0000 O   0  0  0  0  0  0  0  0  0  0  0  0
    0.7690   -0.0169    0.0000 O   0  0  0  0  0  0  0  0  0  0  0  0
    1.9535   -0.9373    0.0000 C   0  0  0  0  0  0  0  0  0  0  0  0
    3.3428   -0.3717    0.0000 C   0  0  0  0  0  0  0  0  0  0  0  0
    3.5476    1.1143    0.0000 C   0  0  0  0  0  0  0  0  0  0  0  0
    4.9369    1.6799    0.0000 C   0  0  0  0  0  0  0  0  0  0  0  0
    6.1213    0.7595    0.0000 C   0  0  0  0  0  0  0  0  0  0  0  0
    5.9165   -0.7264    0.0000 C   0  0  0  0  0  0  0  0  0  0  0  0
    4.5272   -1.2920    0.0000 C   0  0  0  0  0  0  0  0  0  0  0  0
  2  1  1  6
  2  3  1  0
  3  4  1  0
  4  5  1  0
  5  6  2  0
  5  7  1  0
  2  8  1  0
  8  9  2  0
  8 10  1  0
 10 11  1  0
 11 12  1  0
 12 13  2  0
 13 14  1  0
 14 15  2  0
 15 16  1  0
 16 17  2  0
 17 12  1  0
M  END
>  <rName>  (108) 
Glu-OBn

>  <PQ_SYMBOL>  (108) 
Glu-OBn

>  <FULL_NAME>  (108) 
L-Glutamic acid alpha-benzyl ester

>  <IUPAC_CONDENSED>  (108) 
Glu-OBn

>  <IUPAC>  (108) 
(4S)-4-amino-4-(benzyloxycarbonyl)butanoic acid

>  <TYPE>  (108) 
C-term cap

>  <CLASS>  (108) 
c_cap

>  <ANALOG>  (108) 
X

>  <MOL_WT>  (108) 
237.255

>  <LOGP>  (108) 
0.9218999999999997

>  <TPSA>  (108) 
89.62000000000002

>  <POPULARITY>  (108) 
7

>  <PROTECTED>  (108) 
TRUE

>  <SMILES>  (108) 
N[C@@H](CCC(=O)O)C(=O)OCc1ccccc1

>  <INCHIKEY>  (108) 
HFZKKJHBHCZXTQ-JTQLQIEISA-N

$$$$
Gly-OPh_4NO2
     RDKit          2D

 14 14  0  0  0  0  0  0  0  0999 V2000
   -5.5892    0.7003    0.0000 N   0  0  0  0  0  0  0  0  0  0  0  0
   -4.5452   -0.3768    0.0000 C   0  0  0  0  0  0  0  0  0  0  0  0
   -3.0905   -0.0112    0.0000 C   0  0  0  0  0  0  0  0  0  0  0  0
   -2.6797    1.4314    0.0000 O   0  0  0  0  0  0  0  0  0  0  0  0
   -2.0465   -1.0883    0.0000 O   0  0  0  0  0  0  0  0  0  0  0  0
   -0.5917   -0.7227    0.0000 C   0  0  0  0  0  0  0  0  0  0  0  0
   -0.1809    0.7199    0.0000 C   0  0  0  0  0  0  0  0  0  0  0  0
    1.2739    1.0855    0.0000 C   0  0  0  0  0  0  0  0  0  0  0  0
    2.3178    0.0084    0.0000 C   0  0  0  0  0  0  0  0  0  0  0  0
    1.9071   -1.4342    0.0000 C   0  0  0  0  0  0  0  0  0  0  0  0
    0.4523   -1.7998    0.0000 C   0  0  0  0  0  0  0  0  0  0  0  0
    3.7726    0.3740    0.0000 N   0  0  0  0  0  0  0  0  0  0  0  0
    4.1834    1.8167    0.0000 O   0  0  0  0  0  0  0  0  0  0  0  0
    4.8166   -0.7031    0.0000 O   0  0  0  0  0  0  0  0  0  0  0  0
  1  2  1  0
  2  3  1  0
  3  4  2  0
  3  5  1  0
  5  6  1  0
  6  7  1  0
  7  8  2  0
  8  9  1  0
  9 10  2  0
 10 11  1  0
  9 12  1  0
 12 13  2  0
 12 14  1  0
 11  6  2  0
M  CHG  2  12   1  14  -1
M  END
>  <rName>  (109) 
Gly-OPh_4NO2

>  <PQ_SYMBOL>  (109) 
Gly-OPh_4NO2

>  <FULL_NAME>  (109) 
(4-nitrophenyl) 2-aminoacetate

>  <IUPAC_CONDENSED>  (109) 
Gly-OPh(4-NO2)

>  <IUPAC>  (109) 
4-nitrophenyl 2-aminoacetate

>  <TYPE>  (109) 
C-term cap

>  <CLASS>  (109) 
c_cap

>  <ANALOG>  (109) 
X

>  <MOL_WT>  (109) 
196.16199999999998

>  <LOGP>  (109) 
0.45889999999999986

>  <TPSA>  (109) 
95.46000000000001

>  <POPULARITY>  (109) 
7.5

>  <PROTECTED>  (109) 
TRUE

>  <SMILES>  (109) 
NCC(=O)Oc1ccc(cc1)[N+](=O)[O-]

>  <INCHIKEY>  (109) 
KGONNPXPJQKSGN-UHFFFAOYSA-N

$$$$
Pro-OBn
     RDKit          2D

 15 16  0  0  0  0  0  0  0  0999 V2000
   -4.2447   -0.6610    0.0000 N   0  0  0  0  0  0  0  0  0  0  0  0
   -2.8455   -0.1203    0.0000 C   0  0  0  0  0  0  0  0  0  0  0  0
   -2.9274    1.3775    0.0000 C   0  0  0  0  0  0  0  0  0  0  0  0
   -4.3772    1.7625    0.0000 C   0  0  0  0  0  0  0  0  0  0  0  0
   -5.1913    0.5026    0.0000 C   0  0  0  0  0  0  0  0  0  0  0  0
   -1.5857   -0.9344    0.0000 C   0  0  0  0  0  0  0  0  0  0  0  0
   -1.6608   -2.4325    0.0000 O   0  0  0  0  0  0  0  0  0  0  0  0
   -0.2507   -0.2504    0.0000 O   0  0  0  0  0  0  0  0  0  0  0  0
    1.0091   -1.0645    0.0000 C   0  0  0  0  0  0  0  0  0  0  0  0
    2.3441   -0.3806    0.0000 C   0  0  0  0  0  0  0  0  0  0  0  0
    3.6039   -1.1947    0.0000 C   0  0  0  0  0  0  0  0  0  0  0  0
    4.9389   -0.5107    0.0000 C   0  0  0  0  0  0  0  0  0  0  0  0
    5.0140    0.9874    0.0000 C   0  0  0  0  0  0  0  0  0  0  0  0
    3.7542    1.8015    0.0000 C   0  0  0  0  0  0  0  0  0  0  0  0
    2.4192    1.1176    0.0000 C   0  0  0  0  0  0  0  0  0  0  0  0
  1  2  1  0
  2  3  1  0
  3  4  1  0
  4  5  1  0
  2  6  1  1
  6  7  2  0
  6  8  1  0
  8  9  1  0
  9 10  1  0
 10 11  2  0
 11 12  1  0
 12 13  2  0
 13 14  1  0
 14 15  2  0
 15 10  1  0
  5  1  1  0
M  END
>  <rName>  (110) 
Pro-OBn

>  <PQ_SYMBOL>  (110) 
Pro-OBn

>  <FULL_NAME>  (110) 
L-Proline benzyl ester

>  <IUPAC_CONDENSED>  (110) 
Pro-OBn

>  <IUPAC>  (110) 
benzyl (2S)-pyrrolidine-2-carboxylate

>  <TYPE>  (110) 
C-term cap

>  <CLASS>  (110) 
c_cap

>  <ANALOG>  (110) 
X

>  <MOL_WT>  (110) 
205.257

>  <LOGP>  (110) 
1.4817999999999996

>  <TPSA>  (110) 
38.33

>  <POPULARITY>  (110) 
14.1

>  <PROTECTED>  (110) 
TRUE

>  <SMILES>  (110) 
N2[C@@H](CCC2)C(=O)OCc1ccccc1

>  <INCHIKEY>  (110) 
VVCLBQFBKZQOAF-NSHDSACASA-N

$$$$
Lys-al
     RDKit          2D

  9  8  0  0  0  0  0  0  0  0999 V2000
    1.8501   -1.5346    0.0000 N   0  0  0  0  0  0  0  0  0  0  0  0
    1.7396   -0.0387    0.0000 C   0  0  0  0  0  0  0  0  0  0  0  0
    2.9799    0.8049    0.0000 C   0  0  0  0  0  0  0  0  0  0  0  0
    4.3306    0.1526    0.0000 O   0  0  0  0  0  0  0  0  0  0  0  0
    0.3889    0.6136    0.0000 C   0  0  0  0  0  0  0  0  0  0  0  0
   -0.8514   -0.2300    0.0000 C   0  0  0  0  0  0  0  0  0  0  0  0
   -2.2021    0.4223    0.0000 C   0  0  0  0  0  0  0  0  0  0  0  0
   -3.4424   -0.4213    0.0000 C   0  0  0  0  0  0  0  0  0  0  0  0
   -4.7932    0.2311    0.0000 N   0  0  0  0  0  0  0  0  0  0  0  0
  2  1  1  1
  2  3  1  0
  3  4  2  0
  2  5  1  0
  5  6  1  0
  6  7  1  0
  7  8  1  0
  8  9  1  0
M  END
>  <rName>  (111) 
Lys-al

>  <PQ_SYMBOL>  (111) 
Lys-al

>  <FULL_NAME>  (111) 
(2S)-2,6-diaminohexanal

>  <IUPAC_CONDENSED>  (111) 
Lys-al

>  <IUPAC>  (111) 
(2S)-2,6-diaminohexanal

>  <TYPE>  (111) 
C-term cap

>  <CLASS>  (111) 
c_cap

>  <ANALOG>  (111) 
X

>  <MOL_WT>  (111) 
130.191

>  <LOGP>  (111) 
-0.3584

>  <TPSA>  (111) 
69.11

>  <POPULARITY>  (111) 
21.7

>  <PROTECTED>  (111) 
FALSE

>  <SMILES>  (111) 
N[C@H](C=O)CCCCN

>  <INCHIKEY>  (111) 
YUZOKOFJOOANSW-LURJTMIESA-N

$$$$
NPh2OMe-G
     RDKit          2D

 13 13  0  0  0  0  0  0  0  0999 V2000
   -0.9346   -0.3137    0.0000 N   0  0  0  0  0  0  0  0  0  0  0  0
    0.4317    0.3053    0.0000 C   0  0  0  0  0  0  0  0  0  0  0  0
    0.5789    1.7980    0.0000 C   0  0  0  0  0  0  0  0  0  0  0  0
    1.9452    2.4170    0.0000 C   0  0  0  0  0  0  0  0  0  0  0  0
    3.1644    1.5432    0.0000 C   0  0  0  0  0  0  0  0  0  0  0  0
    3.0173    0.0504    0.0000 C   0  0  0  0  0  0  0  0  0  0  0  0
    1.6509   -0.5685    0.0000 C   0  0  0  0  0  0  0  0  0  0  0  0
    1.5038   -2.0613    0.0000 O   0  0  0  0  0  0  0  0  0  0  0  0
    2.7230   -2.9351    0.0000 C   0  0  0  0  0  0  0  0  0  0  0  0
   -2.1538    0.5601    0.0000 C   0  0  0  0  0  0  0  0  0  0  0  0
   -3.5202   -0.0588    0.0000 C   0  0  0  0  0  0  0  0  0  0  0  0
   -3.6673   -1.5516    0.0000 O   0  0  0  0  0  0  0  0  0  0  0  0
   -4.7394    0.8150    0.0000 O   0  0  0  0  0  0  0  0  0  0  0  0
  1  2  1  0
  2  3  2  0
  3  4  1  0
  4  5  2  0
  5  6  1  0
  6  7  2  0
  7  8  1  0
  8  9  1  0
  1 10  1  0
 10 11  1  0
 11 12  2  0
 11 13  1  0
  7  2  1  0
M  END
>  <rName>  (112) 
NPh2OMe-G

>  <PQ_SYMBOL>  (112) 
NPh2OMe-G

>  <FULL_NAME>  (112) 
2-(2-methoxyanilino)acetic acid

>  <IUPAC_CONDENSED>  (112) 
N-Ph(2-OMe)-Gly

>  <IUPAC>  (112) 
2-((2-methoxyphenyl)amino)acetic acid

>  <TYPE>  (112) 
N-term cap

>  <CLASS>  (112) 
n_cap

>  <ANALOG>  (112) 
X

>  <MOL_WT>  (112) 
181.19099999999997

>  <LOGP>  (112) 
1.1916999999999998

>  <TPSA>  (112) 
58.56

>  <POPULARITY>  (112) 
12.7

>  <PROTECTED>  (112) 
TRUE

>  <SMILES>  (112) 
N(c1(ccccc1OC))CC(=O)O

>  <INCHIKEY>  (112) 
DRMOCHGNKTXIBF-UHFFFAOYSA-N

$$$$
Gly-camptothecin
     RDKit          2D

 30 34  0  0  0  0  0  0  0  0999 V2000
   -2.0401   -5.1800    0.0000 N   0  0  0  0  0  0  0  0  0  0  0  0
   -1.6011   -3.7456    0.0000 C   0  0  0  0  0  0  0  0  0  0  0  0
   -2.6238   -2.6483    0.0000 C   0  0  0  0  0  0  0  0  0  0  0  0
   -4.0855   -2.9854    0.0000 O   0  0  0  0  0  0  0  0  0  0  0  0
   -2.1849   -1.2140    0.0000 O   0  0  0  0  0  0  0  0  0  0  0  0
   -3.2076   -0.1167    0.0000 C   0  0  0  0  0  0  0  0  0  0  0  0
   -4.1106   -1.3144    0.0000 C   0  0  0  0  0  0  0  0  0  0  0  0
   -5.5994   -1.1312    0.0000 C   0  0  0  0  0  0  0  0  0  0  0  0
   -1.9494    0.6999    0.0000 C   0  0  0  0  0  0  0  0  0  0  0  0
   -0.6130    0.0186    0.0000 C   0  0  0  0  0  0  0  0  0  0  0  0
    0.6452    0.8352    0.0000 C   0  0  0  0  0  0  0  0  0  0  0  0
    2.0940    0.4466    0.0000 C   0  0  0  0  0  0  0  0  0  0  0  0
    2.7746   -0.8901    0.0000 N   0  0  0  0  0  0  0  0  0  0  0  0
    4.2725   -0.9690    0.0000 C   0  0  0  0  0  0  0  0  0  0  0  0
    4.9531   -2.3057    0.0000 C   0  0  0  0  0  0  0  0  0  0  0  0
    6.4511   -2.3846    0.0000 C   0  0  0  0  0  0  0  0  0  0  0  0
    7.2684   -1.1268    0.0000 C   0  0  0  0  0  0  0  0  0  0  0  0
    6.5877    0.2099    0.0000 C   0  0  0  0  0  0  0  0  0  0  0  0
    5.0898    0.2888    0.0000 C   0  0  0  0  0  0  0  0  0  0  0  0
    4.4092    1.6255    0.0000 C   0  0  0  0  0  0  0  0  0  0  0  0
    2.9113    1.7044    0.0000 C   0  0  0  0  0  0  0  0  0  0  0  0
    1.9676    2.8704    0.0000 C   0  0  0  0  0  0  0  0  0  0  0  0
    0.5671    2.3332    0.0000 N   0  0  0  0  0  0  0  0  0  0  0  0
   -0.7693    3.0145    0.0000 C   0  0  0  0  0  0  0  0  0  0  0  0
   -0.8474    4.5125    0.0000 O   0  0  0  0  0  0  0  0  0  0  0  0
   -2.0275    2.1979    0.0000 C   0  0  0  0  0  0  0  0  0  0  0  0
   -3.3638    2.8792    0.0000 C   0  0  0  0  0  0  0  0  0  0  0  0
   -4.6220    2.0626    0.0000 O   0  0  0  0  0  0  0  0  0  0  0  0
   -4.5439    0.5646    0.0000 C   0  0  0  0  0  0  0  0  0  0  0  0
   -5.8021   -0.2520    0.0000 O   0  0  0  0  0  0  0  0  0  0  0  0
  1  2  1  0
  2  3  1  0
  3  4  2  0
  3  5  1  0
  5  6  1  0
  6  7  1  1
  7  8  1  0
  6  9  1  0
  9 10  1  0
 10 11  2  0
 11 12  1  0
 12 13  2  0
 13 14  1  0
 14 15  2  0
 15 16  1  0
 16 17  2  0
 17 18  1  0
 18 19  2  0
 19 20  1  0
 20 21  2  0
 21 22  1  0
 22 23  1  0
 23 24  1  0
 24 25  2  0
 24 26  1  0
 26 27  1  0
 27 28  1  0
 28 29  1  0
 29 30  2  0
 19 14  1  0
 21 12  1  0
 23 11  1  0
 26  9  2  0
 29  6  1  0
M  END
>  <rName>  (113) 
Gly-camptothecin

>  <PQ_SYMBOL>  (113) 
Gly-camptothecin

>  <FULL_NAME>  (113) 
[(19S)-19-ethyl-14,18-dioxo-17-oxa-3,13-diazapentacyclo[11.8.0.02,11.04,9.015,20]henicosa-1(21),2,4,6,8,10,15(20)-heptaen-19-yl] 2-aminoacetate

>  <IUPAC_CONDENSED>  (113) 
Gly-camptothecin

>  <IUPAC>  (113) 
(5S)-5-ethyl-6,10-dioxo-7-oxa-11,21-diazapentacyclo[11.8.0.0^{15,20}.0^{2,11}.0^{4,9}]henicosa-1(21),2,4(9),13,15,17,19-heptaen-5-yl 2-aminoacetate

>  <TYPE>  (113) 
C-term cap

>  <CLASS>  (113) 
c_cap

>  <ANALOG>  (113) 
X

>  <MOL_WT>  (113) 
405.41000000000025

>  <LOGP>  (113) 
1.5891999999999997

>  <TPSA>  (113) 
113.51000000000002

>  <POPULARITY>  (113) 
10.1

>  <PROTECTED>  (113) 
TRUE

>  <SMILES>  (113) 
NCC(=O)O[C@@]5(CC)c4cc3c2nc1ccccc1cc2Cn3c(=O)c4COC5=O

>  <INCHIKEY>  (113) 
JMZZXKLQQWGKQV-QFIPXVFZSA-N

$$$$
EtOCO-Gly
     RDKit          2D

 10  9  0  0  0  0  0  0  0  0999 V2000
    4.7664    0.7239    0.0000 C   0  0  0  0  0  0  0  0  0  0  0  0
    3.5254   -0.1186    0.0000 C   0  0  0  0  0  0  0  0  0  0  0  0
    2.1752    0.5348    0.0000 O   0  0  0  0  0  0  0  0  0  0  0  0
    0.9342   -0.3078    0.0000 C   0  0  0  0  0  0  0  0  0  0  0  0
    1.0434   -1.8038    0.0000 O   0  0  0  0  0  0  0  0  0  0  0  0
   -0.4160    0.3456    0.0000 N   0  0  0  0  0  0  0  0  0  0  0  0
   -1.6570   -0.4970    0.0000 C   0  0  0  0  0  0  0  0  0  0  0  0
   -3.0072    0.1565    0.0000 C   0  0  0  0  0  0  0  0  0  0  0  0
   -3.1164    1.6525    0.0000 O   0  0  0  0  0  0  0  0  0  0  0  0
   -4.2481   -0.6861    0.0000 O   0  0  0  0  0  0  0  0  0  0  0  0
  1  2  1  0
  2  3  1  0
  3  4  1  0
  4  5  2  0
  4  6  1  0
  6  7  1  0
  7  8  1  0
  8  9  2  0
  8 10  1  0
M  END
>  <rName>  (114) 
EtOCO-Gly

>  <PQ_SYMBOL>  (114) 
EtOCO-Gly

>  <FULL_NAME>  (114) 
ethylcarboxyl Glycine

>  <IUPAC_CONDENSED>  (114) 
EtOCO-Gly

>  <IUPAC>  (114) 
2-ethoxycarbonylaminoacetic acid

>  <TYPE>  (114) 
N-term cap

>  <CLASS>  (114) 
n_cap

>  <ANALOG>  (114) 
X

>  <MOL_WT>  (114) 
147.13

>  <LOGP>  (114) 
-0.1828999999999999

>  <TPSA>  (114) 
75.63

>  <POPULARITY>  (114) 
16.8

>  <PROTECTED>  (114) 
TRUE

>  <SMILES>  (114) 
CCOC(=O)NCC(=O)O

>  <INCHIKEY>  (114) 
RTVSUZHDJGUDGX-UHFFFAOYSA-N

$$$$
Mes-Val
     RDKit          2D

 12 11  0  0  0  0  0  0  0  0999 V2000
   -2.5705   -1.7533    0.0000 O   0  0  0  0  0  0  0  0  0  0  0  0
   -1.9233   -0.4001    0.0000 S   0  0  0  0  0  0  0  0  0  0  0  0
   -1.2762    0.9531    0.0000 O   0  0  0  0  0  0  0  0  0  0  0  0
   -3.2766    0.2470    0.0000 C   0  0  0  0  0  0  0  0  0  0  0  0
   -0.5701   -1.0473    0.0000 N   0  0  0  0  0  0  0  0  0  0  0  0
    0.6669   -0.1990    0.0000 C   0  0  0  0  0  0  0  0  0  0  0  0
    2.0201   -0.8461    0.0000 C   0  0  0  0  0  0  0  0  0  0  0  0
    3.2572    0.0022    0.0000 C   0  0  0  0  0  0  0  0  0  0  0  0
    2.1363   -2.3416    0.0000 C   0  0  0  0  0  0  0  0  0  0  0  0
    0.5508    1.2965    0.0000 C   0  0  0  0  0  0  0  0  0  0  0  0
   -0.8024    1.9437    0.0000 O   0  0  0  0  0  0  0  0  0  0  0  0
    1.7878    2.1449    0.0000 O   0  0  0  0  0  0  0  0  0  0  0  0
  1  2  2  0
  2  3  2  0
  2  4  1  0
  2  5  1  0
  6  5  1  6
  6  7  1  0
  7  8  1  0
  7  9  1  0
  6 10  1  0
 10 11  2  0
 10 12  1  0
M  END
>  <rName>  (115) 
Mes-Val

>  <PQ_SYMBOL>  (115) 
Mes-Val

>  <FULL_NAME>  (115) 
(2S)-2-(methanesulfonamido)-3-methylbutanoic acid

>  <IUPAC_CONDENSED>  (115) 
Mes-Val

>  <IUPAC>  (115) 
(2S)-3-methyl-2-methylsulfonylaminobutanoic acid

>  <TYPE>  (115) 
N-term cap

>  <CLASS>  (115) 
n_cap

>  <ANALOG>  (115) 
X

>  <MOL_WT>  (115) 
195.23999999999998

>  <LOGP>  (115) 
-0.35520000000000046

>  <TPSA>  (115) 
83.47

>  <POPULARITY>  (115) 
9.4

>  <PROTECTED>  (115) 
TRUE

>  <SMILES>  (115) 
O=S(=O)(C)N[C@@H](C(C)C)C(=O)O

>  <INCHIKEY>  (115) 
AKFZJYZYVABSGC-YFKPBYRVSA-N

$$$$
Tic_7OH-
     RDKit          2D

 14 15  0  0  0  0  0  0  0  0999 V2000
   -1.5721   -1.5367    0.0000 N   0  0  0  0  0  0  0  0  0  0  0  0
   -2.0048   -0.1005    0.0000 C   0  0  0  0  0  0  0  0  0  0  0  0
   -0.9774    0.9924    0.0000 C   0  0  0  0  0  0  0  0  0  0  0  0
    0.4828    0.6490    0.0000 C   0  0  0  0  0  0  0  0  0  0  0  0
    1.5103    1.7419    0.0000 C   0  0  0  0  0  0  0  0  0  0  0  0
    2.9704    1.3985    0.0000 C   0  0  0  0  0  0  0  0  0  0  0  0
    3.4032   -0.0377    0.0000 C   0  0  0  0  0  0  0  0  0  0  0  0
    4.8633   -0.3811    0.0000 O   0  0  0  0  0  0  0  0  0  0  0  0
    2.3757   -1.1306    0.0000 C   0  0  0  0  0  0  0  0  0  0  0  0
    0.9155   -0.7872    0.0000 C   0  0  0  0  0  0  0  0  0  0  0  0
   -0.1119   -1.8801    0.0000 C   0  0  0  0  0  0  0  0  0  0  0  0
   -3.4650    0.2429    0.0000 C   0  0  0  0  0  0  0  0  0  0  0  0
   -4.4924   -0.8500    0.0000 O   0  0  0  0  0  0  0  0  0  0  0  0
   -3.8977    1.6791    0.0000 O   0  0  0  0  0  0  0  0  0  0  0  0
  1  2  1  0
  2  3  1  0
  3  4  1  0
  4  5  1  0
  5  6  2  0
  6  7  1  0
  7  8  1  0
  7  9  2  0
  9 10  1  0
 10 11  1  0
  2 12  1  6
 12 13  2  0
 12 14  1  0
 10  4  2  0
 11  1  1  0
M  END
>  <rName>  (116) 
Tic_7OH-

>  <PQ_SYMBOL>  (116) 
Tic_7OH-

>  <FULL_NAME>  (116) 
(3S)-7-hydroxy-1,2,3,4-tetrahydroisoquinoline-3-carboxylic acid

>  <IUPAC_CONDENSED>  (116) 
Tic(7-OH)

>  <IUPAC>  (116) 
(4S)-9-hydroxy-3-azabicyclo[4.4.0]deca-1(10),6,8-triene-4-carboxylic acid

>  <TYPE>  (116) 
N-term cap

>  <CLASS>  (116) 
n_cap

>  <ANALOG>  (116) 
X

>  <MOL_WT>  (116) 
193.20199999999994

>  <LOGP>  (116) 
0.49109999999999987

>  <TPSA>  (116) 
69.56

>  <POPULARITY>  (116) 
12.8

>  <PROTECTED>  (116) 
TRUE

>  <SMILES>  (116) 
N2[C@@H](Cc1(ccc(O)cc1C2))C(=O)O

>  <INCHIKEY>  (116) 
HIKCRLDSCSWXML-VIFPVBQESA-N

$$$$
MeOCO-Trp
     RDKit          2D

 19 20  0  0  0  0  0  0  0  0999 V2000
    5.5400   -0.1709    0.0000 C   0  0  0  0  0  0  0  0  0  0  0  0
    4.6401   -1.3710    0.0000 C   0  0  0  0  0  0  0  0  0  0  0  0
    3.1509   -1.1918    0.0000 C   0  0  0  0  0  0  0  0  0  0  0  0
    2.5614    0.1875    0.0000 C   0  0  0  0  0  0  0  0  0  0  0  0
    3.4613    1.3877    0.0000 C   0  0  0  0  0  0  0  0  0  0  0  0
    4.9505    1.2084    0.0000 C   0  0  0  0  0  0  0  0  0  0  0  0
    1.0675    0.0532    0.0000 C   0  0  0  0  0  0  0  0  0  0  0  0
    0.7336   -1.4092    0.0000 C   0  0  0  0  0  0  0  0  0  0  0  0
    2.0212   -2.1786    0.0000 N   0  0  0  0  0  0  0  0  0  0  0  0
    0.0807    1.1829    0.0000 C   0  0  0  0  0  0  0  0  0  0  0  0
   -1.3911    0.8931    0.0000 C   0  0  0  0  0  0  0  0  0  0  0  0
   -1.8760   -0.5263    0.0000 N   0  0  0  0  0  0  0  0  0  0  0  0
   -3.3478   -0.8161    0.0000 C   0  0  0  0  0  0  0  0  0  0  0  0
   -4.3346    0.3136    0.0000 O   0  0  0  0  0  0  0  0  0  0  0  0
   -3.8327   -2.2355    0.0000 O   0  0  0  0  0  0  0  0  0  0  0  0
   -5.3045   -2.5253    0.0000 C   0  0  0  0  0  0  0  0  0  0  0  0
   -2.3779    2.0228    0.0000 C   0  0  0  0  0  0  0  0  0  0  0  0
   -1.8930    3.4423    0.0000 O   0  0  0  0  0  0  0  0  0  0  0  0
   -3.8496    1.7331    0.0000 O   0  0  0  0  0  0  0  0  0  0  0  0
  1  2  1  0
  2  3  2  0
  3  4  1  0
  4  5  2  0
  5  6  1  0
  4  7  1  0
  7  8  2  0
  8  9  1  0
  7 10  1  0
 11 10  1  6
 11 12  1  0
 12 13  1  0
 13 14  2  0
 13 15  1  0
 15 16  1  0
 11 17  1  0
 17 18  2  0
 17 19  1  0
  9  3  1  0
  6  1  2  0
M  END
>  <rName>  (117) 
MeOCO-Trp

>  <PQ_SYMBOL>  (117) 
MeOCO-Trp

>  <FULL_NAME>  (117) 
(2S)-3-(1H-indol-3-yl)-2-(methoxycarbonylamino)propanoic acid

>  <IUPAC_CONDENSED>  (117) 
MeOCO-Trp

>  <IUPAC>  (117) 
(2S)-3-(7-azabicyclo[4.3.0]nona-1(6),2,4,8-tetraen-9-yl)-2-methoxycarbonylaminopropanoic acid

>  <TYPE>  (117) 
N-term cap

>  <CLASS>  (117) 
n_cap

>  <ANALOG>  (117) 
X

>  <MOL_WT>  (117) 
262.26499999999993

>  <LOGP>  (117) 
1.5195999999999996

>  <TPSA>  (117) 
91.42

>  <POPULARITY>  (117) 
11.1

>  <PROTECTED>  (117) 
TRUE

>  <SMILES>  (117) 
c2cc1c(cc2)c(c[nH]1)C[C@H](NC(=O)OC)C(=O)O

>  <INCHIKEY>  (117) 
YYZYDKOBSFGJNZ-NSHDSACASA-N

$$$$
D-Tyr_26diMe-
     RDKit          2D

 15 15  0  0  0  0  0  0  0  0999 V2000
   -1.7110    1.6830    0.0000 N   0  0  0  0  0  0  0  0  0  0  0  0
   -2.0873    0.2310    0.0000 C   0  0  0  0  0  0  0  0  0  0  0  0
   -1.0179   -0.8209    0.0000 C   0  0  0  0  0  0  0  0  0  0  0  0
    0.4277   -0.4208    0.0000 C   0  0  0  0  0  0  0  0  0  0  0  0
    0.8040    1.0313    0.0000 C   0  0  0  0  0  0  0  0  0  0  0  0
   -0.2654    2.0832    0.0000 C   0  0  0  0  0  0  0  0  0  0  0  0
    2.2497    1.4315    0.0000 C   0  0  0  0  0  0  0  0  0  0  0  0
    3.3190    0.3796    0.0000 C   0  0  0  0  0  0  0  0  0  0  0  0
    4.7647    0.7797    0.0000 O   0  0  0  0  0  0  0  0  0  0  0  0
    2.9428   -1.0725    0.0000 C   0  0  0  0  0  0  0  0  0  0  0  0
    1.4971   -1.4726    0.0000 C   0  0  0  0  0  0  0  0  0  0  0  0
    1.1209   -2.9247    0.0000 C   0  0  0  0  0  0  0  0  0  0  0  0
   -3.5329   -0.1692    0.0000 C   0  0  0  0  0  0  0  0  0  0  0  0
   -3.9092   -1.6212    0.0000 O   0  0  0  0  0  0  0  0  0  0  0  0
   -4.6023    0.8827    0.0000 O   0  0  0  0  0  0  0  0  0  0  0  0
  2  1  1  6
  2  3  1  0
  3  4  1  0
  4  5  2  0
  5  6  1  0
  5  7  1  0
  7  8  2  0
  8  9  1  0
  8 10  1  0
 10 11  2  0
 11 12  1  0
  2 13  1  0
 13 14  2  0
 13 15  1  0
 11  4  1  0
M  END
>  <rName>  (118) 
D-Tyr_26diMe-

>  <PQ_SYMBOL>  (118) 
D-Tyr_26diMe-

>  <FULL_NAME>  (118) 
(2R)-2-amino-3-(4-hydroxy-2,6-dimethylphenyl)propanoic acid

>  <IUPAC_CONDENSED>  (118) 
D-Tyr(2,6-diMe)

>  <IUPAC>  (118) 
(2R)-2-amino-3-(4-hydroxy-2,6-dimethylphenyl)propanoic acid

>  <TYPE>  (118) 
N-term cap

>  <CLASS>  (118) 
n_cap

>  <ANALOG>  (118) 
X

>  <MOL_WT>  (118) 
209.24499999999998

>  <LOGP>  (118) 
0.9634400000000001

>  <TPSA>  (118) 
83.55

>  <POPULARITY>  (118) 
8.4

>  <PROTECTED>  (118) 
TRUE

>  <SMILES>  (118) 
N[C@H](Cc1(c(C)cc(O)cc1C))C(=O)O

>  <INCHIKEY>  (118) 
LSNDLIKCFHLFKO-SNVBAGLBSA-N

$$$$
D-Ac3c_2REt
     RDKit          2D

  9  9  0  0  0  0  0  0  0  0999 V2000
   -2.3058    0.6435    0.0000 N   0  0  0  0  0  0  0  0  0  0  0  0
   -0.8074    0.5739    0.0000 C   0  0  0  0  0  0  0  0  0  0  0  0
   -0.6157   -0.9138    0.0000 C   0  0  0  0  0  0  0  0  0  0  0  0
    0.7685   -1.4916    0.0000 O   0  0  0  0  0  0  0  0  0  0  0  0
   -1.8082   -1.8236    0.0000 O   0  0  0  0  0  0  0  0  0  0  0  0
    0.6244    1.0211    0.0000 C   0  0  0  0  0  0  0  0  0  0  0  0
   -0.4787    2.0375    0.0000 C   0  0  0  0  0  0  0  0  0  0  0  0
    2.0879    0.6924    0.0000 C   0  0  0  0  0  0  0  0  0  0  0  0
    2.5351   -0.7394    0.0000 C   0  0  0  0  0  0  0  0  0  0  0  0
  2  1  1  6
  2  3  1  0
  3  4  2  0
  3  5  1  0
  2  6  1  0
  6  7  1  0
  6  8  1  1
  8  9  1  0
  7  2  1  0
M  END
>  <rName>  (119) 
D-Ac3c_2REt

>  <PQ_SYMBOL>  (119) 
D-Ac3c_2REt

>  <FULL_NAME>  (119) 
(1R,2R)-1-amino-2-ethylcyclopropane-1-carboxylic acid

>  <IUPAC_CONDENSED>  (119) 
D-Ac3c(2R-Et)

>  <IUPAC>  (119) 
(1R,2R)-1-amino-2-ethylcyclopropanecarboxylic acid

>  <TYPE>  (119) 
C-term cap

>  <CLASS>  (119) 
c_cap

>  <ANALOG>  (119) 
X

>  <MOL_WT>  (119) 
129.159

>  <LOGP>  (119) 
0.19839999999999947

>  <TPSA>  (119) 
63.32000000000001

>  <POPULARITY>  (119) 
10.1

>  <PROTECTED>  (119) 
TRUE

>  <SMILES>  (119) 
N[C@@]1(C(=O)O)[C@@H](C1)CC

>  <INCHIKEY>  (119) 
RLHIWMRQDUCBDO-INEUFUBQSA-N

$$$$
Bes4-OMe-Ala
     RDKit          2D

 17 17  0  0  0  0  0  0  0  0999 V2000
    5.3529   -1.7394    0.0000 C   0  0  0  0  0  0  0  0  0  0  0  0
    4.9030   -0.3084    0.0000 O   0  0  0  0  0  0  0  0  0  0  0  0
    3.4389    0.0174    0.0000 C   0  0  0  0  0  0  0  0  0  0  0  0
    2.4246   -1.0876    0.0000 C   0  0  0  0  0  0  0  0  0  0  0  0
    0.9604   -0.7617    0.0000 C   0  0  0  0  0  0  0  0  0  0  0  0
    0.5105    0.6692    0.0000 C   0  0  0  0  0  0  0  0  0  0  0  0
    1.5248    1.7743    0.0000 C   0  0  0  0  0  0  0  0  0  0  0  0
    2.9890    1.4484    0.0000 C   0  0  0  0  0  0  0  0  0  0  0  0
   -0.9536    0.9951    0.0000 S   0  0  0  0  0  0  0  0  0  0  0  0
   -0.6278    2.4593    0.0000 O   0  0  0  0  0  0  0  0  0  0  0  0
   -1.2795   -0.4691    0.0000 O   0  0  0  0  0  0  0  0  0  0  0  0
   -2.4178    1.3210    0.0000 N   0  0  0  0  0  0  0  0  0  0  0  0
   -3.4321    0.2159    0.0000 C   0  0  0  0  0  0  0  0  0  0  0  0
   -4.8963    0.5418    0.0000 C   0  0  0  0  0  0  0  0  0  0  0  0
   -2.9823   -1.2150    0.0000 C   0  0  0  0  0  0  0  0  0  0  0  0
   -1.5181   -1.5409    0.0000 O   0  0  0  0  0  0  0  0  0  0  0  0
   -3.9966   -2.3201    0.0000 O   0  0  0  0  0  0  0  0  0  0  0  0
  1  2  1  0
  2  3  1  0
  3  4  1  0
  4  5  2  0
  5  6  1  0
  6  7  2  0
  7  8  1  0
  6  9  1  0
  9 10  2  0
  9 11  2  0
  9 12  1  0
 12 13  1  0
 13 14  1  6
 13 15  1  0
 15 16  2  0
 15 17  1  0
  8  3  2  0
M  END
>  <rName>  (120) 
Bes4-OMe-Ala

>  <PQ_SYMBOL>  (120) 
Bes4-OMe-Ala

>  <FULL_NAME>  (120) 
(2S)-2-[(4-methoxyphenyl)sulfonylamino]propanoic acid

>  <IUPAC_CONDENSED>  (120) 
Bes(4-OMe)-Ala

>  <IUPAC>  (120) 
(2S)-2-(4-methoxyphenylsulfonylamino)propanoic acid

>  <TYPE>  (120) 
N-term cap

>  <CLASS>  (120) 
n_cap

>  <ANALOG>  (120) 
X

>  <MOL_WT>  (120) 
259.28299999999996

>  <LOGP>  (120) 
0.4465999999999999

>  <TPSA>  (120) 
92.7

>  <POPULARITY>  (120) 
9

>  <PROTECTED>  (120) 
TRUE

>  <SMILES>  (120) 
COc1ccc(cc1)S(=O)(=O)N[C@@H](C)C(=O)O

>  <INCHIKEY>  (120) 
XTCIPBHRVYICGT-ZETCQYMHSA-N

$$$$
valacyclovir
     RDKit          2D

 23 24  0  0  0  0  0  0  0  0999 V2000
   -6.4863   -2.1442    0.0000 N   0  0  0  0  0  0  0  0  0  0  0  0
   -6.5389   -0.6451    0.0000 C   0  0  0  0  0  0  0  0  0  0  0  0
   -7.8635    0.0588    0.0000 C   0  0  0  0  0  0  0  0  0  0  0  0
   -9.1354   -0.7364    0.0000 C   0  0  0  0  0  0  0  0  0  0  0  0
   -7.9162    1.5579    0.0000 C   0  0  0  0  0  0  0  0  0  0  0  0
   -5.2671    0.1500    0.0000 C   0  0  0  0  0  0  0  0  0  0  0  0
   -5.3197    1.6491    0.0000 O   0  0  0  0  0  0  0  0  0  0  0  0
   -3.9425   -0.5539    0.0000 O   0  0  0  0  0  0  0  0  0  0  0  0
   -2.6706    0.2413    0.0000 C   0  0  0  0  0  0  0  0  0  0  0  0
   -1.3460   -0.4626    0.0000 C   0  0  0  0  0  0  0  0  0  0  0  0
   -0.0741    0.3326    0.0000 O   0  0  0  0  0  0  0  0  0  0  0  0
    1.2505   -0.3713    0.0000 C   0  0  0  0  0  0  0  0  0  0  0  0
    2.5224    0.4238    0.0000 N   0  0  0  0  0  0  0  0  0  0  0  0
    3.9133   -0.1378    0.0000 C   0  0  0  0  0  0  0  0  0  0  0  0
    4.4266   -1.5472    0.0000 N   0  0  0  0  0  0  0  0  0  0  0  0
    5.9039   -1.8073    0.0000 C   0  0  0  0  0  0  0  0  0  0  0  0
    6.4172   -3.2168    0.0000 N   0  0  0  0  0  0  0  0  0  0  0  0
    6.8678   -0.6580    0.0000 N   0  0  0  0  0  0  0  0  0  0  0  0
    6.3545    0.7514    0.0000 C   0  0  0  0  0  0  0  0  0  0  0  0
    7.3184    1.9007    0.0000 O   0  0  0  0  0  0  0  0  0  0  0  0
    4.8772    1.0115    0.0000 C   0  0  0  0  0  0  0  0  0  0  0  0
    4.0820    2.2834    0.0000 N   0  0  0  0  0  0  0  0  0  0  0  0
    2.6267    1.9202    0.0000 C   0  0  0  0  0  0  0  0  0  0  0  0
  2  1  1  1
  2  3  1  0
  3  4  1  0
  3  5  1  0
  2  6  1  0
  6  7  2  0
  6  8  1  0
  8  9  1  0
  9 10  1  0
 10 11  1  0
 11 12  1  0
 12 13  1  0
 13 14  1  0
 14 15  1  0
 15 16  2  0
 16 17  1  0
 16 18  1  0
 18 19  1  0
 19 20  2  0
 19 21  1  0
 21 22  1  0
 22 23  2  0
 21 14  2  0
 23 13  1  0
M  END
>  <rName>  (121) 
valacyclovir

>  <PQ_SYMBOL>  (121) 
valacyclovir

>  <FULL_NAME>  (121) 
2-[(2-amino-6-oxo-1H-purin-9-yl)methoxy]ethyl (2S)-2-amino-3-methylbutanoate

>  <IUPAC_CONDENSED>  (121) 
valacyclovir

>  <IUPAC>  (121) 
2-(((3-amino-5-oxo-2,4,7,9-tetraazabicyclo[4.3.0]nona-1(6),2,7-trien-9-yl)methyl)oxy)ethyl (2S)-2-amino-3-methylbutanoate

>  <TYPE>  (121) 
C-term cap

>  <CLASS>  (121) 
c_cap

>  <ANALOG>  (121) 
X

>  <MOL_WT>  (121) 
324.341

>  <LOGP>  (121) 
-0.7975999999999985

>  <TPSA>  (121) 
151.14

>  <POPULARITY>  (121) 
8.2

>  <PROTECTED>  (121) 
TRUE

>  <SMILES>  (121) 
N[C@@H](C(C)C)C(=O)OCCOCn2c1nc(N)[nH]c(=O)c1nc2

>  <INCHIKEY>  (121) 
HDOVUKNUBWVHOX-QMMMGPOBSA-N

$$$$
thymin-1-acetyl
     RDKit          2D

 13 13  0  0  0  0  0  0  0  0999 V2000
   -3.9357   -0.2465    0.0000 O   0  0  0  0  0  0  0  0  0  0  0  0
   -2.4558   -0.0015    0.0000 C   0  0  0  0  0  0  0  0  0  0  0  0
   -1.9281    1.4026    0.0000 N   0  0  0  0  0  0  0  0  0  0  0  0
   -0.4482    1.6477    0.0000 C   0  0  0  0  0  0  0  0  0  0  0  0
    0.0795    3.0518    0.0000 O   0  0  0  0  0  0  0  0  0  0  0  0
    0.5039    0.4886    0.0000 N   0  0  0  0  0  0  0  0  0  0  0  0
   -0.0238   -0.9155    0.0000 C   0  0  0  0  0  0  0  0  0  0  0  0
   -1.5037   -1.1606    0.0000 C   0  0  0  0  0  0  0  0  0  0  0  0
   -2.0314   -2.5647    0.0000 C   0  0  0  0  0  0  0  0  0  0  0  0
    1.9837    0.7336    0.0000 C   0  0  0  0  0  0  0  0  0  0  0  0
    2.9359   -0.4255    0.0000 C   0  0  0  0  0  0  0  0  0  0  0  0
    2.4081   -1.8296    0.0000 O   0  0  0  0  0  0  0  0  0  0  0  0
    4.4157   -0.1804    0.0000 O   0  0  0  0  0  0  0  0  0  0  0  0
  1  2  2  0
  2  3  1  0
  3  4  1  0
  4  5  2  0
  4  6  1  0
  6  7  1  0
  7  8  2  0
  8  9  1  0
  6 10  1  0
 10 11  1  0
 11 12  2  0
 11 13  1  0
  8  2  1  0
M  END
>  <rName>  (122) 
thymin-1-acetyl

>  <PQ_SYMBOL>  (122) 
thymin-1-acetyl

>  <FULL_NAME>  (122) 
2-(5-methyl-2,4-dioxopyrimidin-1-yl)acetic acid

>  <IUPAC_CONDENSED>  (122) 
thymin-1-acetyl

>  <IUPAC>  (122) 
2-(5-methyl-2,4-dioxo-1,3-diazacyclohex-5-en-1-yl)acetic acid

>  <TYPE>  (122) 
N-term cap

>  <CLASS>  (122) 
n_cap

>  <ANALOG>  (122) 
X

>  <MOL_WT>  (122) 
184.15099999999998

>  <LOGP>  (122) 
-1.07038

>  <TPSA>  (122) 
92.16000000000001

>  <POPULARITY>  (122) 
8.2

>  <PROTECTED>  (122) 
TRUE

>  <SMILES>  (122) 
O=c1[nH]c(=O)n(cc1C)CC(=O)O

>  <INCHIKEY>  (122) 
TZDMCKHDYUDRMB-UHFFFAOYSA-N

$$$$
Nle-OMe
     RDKit          2D

 10  9  0  0  0  0  0  0  0  0999 V2000
   -0.2656    1.8966    0.0000 N   0  0  0  0  0  0  0  0  0  0  0  0
   -0.3642    0.3998    0.0000 C   0  0  0  0  0  0  0  0  0  0  0  0
   -1.7097   -0.2632    0.0000 C   0  0  0  0  0  0  0  0  0  0  0  0
   -1.8084   -1.7599    0.0000 O   0  0  0  0  0  0  0  0  0  0  0  0
   -2.9567    0.5706    0.0000 O   0  0  0  0  0  0  0  0  0  0  0  0
   -4.3022   -0.0924    0.0000 C   0  0  0  0  0  0  0  0  0  0  0  0
    0.8827   -0.4340    0.0000 C   0  0  0  0  0  0  0  0  0  0  0  0
    2.2282    0.2290    0.0000 C   0  0  0  0  0  0  0  0  0  0  0  0
    3.4752   -0.6047    0.0000 C   0  0  0  0  0  0  0  0  0  0  0  0
    4.8207    0.0582    0.0000 C   0  0  0  0  0  0  0  0  0  0  0  0
  2  1  1  1
  2  3  1  0
  3  4  2  0
  3  5  1  0
  5  6  1  0
  2  7  1  0
  7  8  1  0
  8  9  1  0
  9 10  1  0
M  END
>  <rName>  (123) 
Nle-OMe

>  <PQ_SYMBOL>  (123) 
Nle-OMe

>  <FULL_NAME>  (123) 
norleucine methyl ester

>  <IUPAC_CONDENSED>  (123) 
Nle-OMe

>  <IUPAC>  (123) 
methyl (2S)-2-aminohexanoate

>  <TYPE>  (123) 
C-term cap

>  <CLASS>  (123) 
c_cap

>  <ANALOG>  (123) 
X

>  <MOL_WT>  (123) 
145.202

>  <LOGP>  (123) 
0.6768999999999996

>  <TPSA>  (123) 
52.32000000000001

>  <POPULARITY>  (123) 
20.3

>  <PROTECTED>  (123) 
TRUE

>  <SMILES>  (123) 
N[C@H](C(=O)OC)CCCC

>  <INCHIKEY>  (123) 
TVZNFYXAPXOARC-LURJTMIESA-N

$$$$
Tyr_26diF-
     RDKit          2D

 15 15  0  0  0  0  0  0  0  0999 V2000
   -1.7110    1.6830    0.0000 N   0  0  0  0  0  0  0  0  0  0  0  0
   -2.0873    0.2310    0.0000 C   0  0  0  0  0  0  0  0  0  0  0  0
   -1.0179   -0.8209    0.0000 C   0  0  0  0  0  0  0  0  0  0  0  0
    0.4277   -0.4208    0.0000 C   0  0  0  0  0  0  0  0  0  0  0  0
    0.8040    1.0313    0.0000 C   0  0  0  0  0  0  0  0  0  0  0  0
   -0.2654    2.0832    0.0000 F   0  0  0  0  0  0  0  0  0  0  0  0
    2.2497    1.4315    0.0000 C   0  0  0  0  0  0  0  0  0  0  0  0
    3.3190    0.3796    0.0000 C   0  0  0  0  0  0  0  0  0  0  0  0
    4.7647    0.7797    0.0000 O   0  0  0  0  0  0  0  0  0  0  0  0
    2.9428   -1.0725    0.0000 C   0  0  0  0  0  0  0  0  0  0  0  0
    1.4971   -1.4726    0.0000 C   0  0  0  0  0  0  0  0  0  0  0  0
    1.1209   -2.9247    0.0000 F   0  0  0  0  0  0  0  0  0  0  0  0
   -3.5329   -0.1692    0.0000 C   0  0  0  0  0  0  0  0  0  0  0  0
   -3.9092   -1.6212    0.0000 O   0  0  0  0  0  0  0  0  0  0  0  0
   -4.6023    0.8827    0.0000 O   0  0  0  0  0  0  0  0  0  0  0  0
  2  1  1  1
  2  3  1  0
  3  4  1  0
  4  5  2  0
  5  6  1  0
  5  7  1  0
  7  8  2  0
  8  9  1  0
  8 10  1  0
 10 11  2  0
 11 12  1  0
  2 13  1  0
 13 14  2  0
 13 15  1  0
 11  4  1  0
M  END
>  <rName>  (124) 
Tyr_26diF-

>  <PQ_SYMBOL>  (124) 
Tyr_26diF-

>  <FULL_NAME>  (124) 
(2S)-2-amino-3-(2,6-difluoro-4-hydroxyphenyl)propanoic acid

>  <IUPAC_CONDENSED>  (124) 
Tyr(2,6-diF)

>  <IUPAC>  (124) 
(2S)-2-amino-3-(2,6-difluoro-4-hydroxyphenyl)propanoic acid

>  <TYPE>  (124) 
N-term cap

>  <CLASS>  (124) 
n_cap

>  <ANALOG>  (124) 
X

>  <MOL_WT>  (124) 
217.17099999999996

>  <LOGP>  (124) 
0.6248

>  <TPSA>  (124) 
83.55

>  <POPULARITY>  (124) 
8.6

>  <PROTECTED>  (124) 
TRUE

>  <SMILES>  (124) 
N[C@@H](Cc1(c(F)cc(O)cc1F))C(=O)O

>  <INCHIKEY>  (124) 
GXXSRPQBOBZVBN-QMMMGPOBSA-N

$$$$
D-Ala-OBn
     RDKit          2D

 13 13  0  0  0  0  0  0  0  0999 V2000
   -3.3050    1.9837    0.0000 N   0  0  0  0  0  0  0  0  0  0  0  0
   -3.5634    0.5061    0.0000 C   0  0  0  0  0  0  0  0  0  0  0  0
   -4.9723   -0.0089    0.0000 C   0  0  0  0  0  0  0  0  0  0  0  0
   -2.4130   -0.4565    0.0000 C   0  0  0  0  0  0  0  0  0  0  0  0
   -2.6715   -1.9340    0.0000 O   0  0  0  0  0  0  0  0  0  0  0  0
   -1.0042    0.0585    0.0000 O   0  0  0  0  0  0  0  0  0  0  0  0
    0.1462   -0.9041    0.0000 C   0  0  0  0  0  0  0  0  0  0  0  0
    1.5550   -0.3891    0.0000 C   0  0  0  0  0  0  0  0  0  0  0  0
    1.8135    1.0885    0.0000 C   0  0  0  0  0  0  0  0  0  0  0  0
    3.2223    1.6034    0.0000 C   0  0  0  0  0  0  0  0  0  0  0  0
    4.3727    0.6408    0.0000 C   0  0  0  0  0  0  0  0  0  0  0  0
    4.1143   -0.8367    0.0000 C   0  0  0  0  0  0  0  0  0  0  0  0
    2.7054   -1.3517    0.0000 C   0  0  0  0  0  0  0  0  0  0  0  0
  1  2  1  0
  2  3  1  1
  2  4  1  0
  4  5  2  0
  4  6  1  0
  6  7  1  0
  7  8  1  0
  8  9  2  0
  9 10  1  0
 10 11  2  0
 11 12  1  0
 12 13  2  0
 13  8  1  0
M  END
>  <rName>  (125) 
D-Ala-OBn

>  <PQ_SYMBOL>  (125) 
D-Ala-OBn

>  <FULL_NAME>  (125) 
D-Alanine benzyl ester

>  <IUPAC_CONDENSED>  (125) 
D-Ala-OBn

>  <IUPAC>  (125) 
benzyl (2R)-2-aminopropanoate

>  <TYPE>  (125) 
C-term cap

>  <CLASS>  (125) 
c_cap

>  <ANALOG>  (125) 
X

>  <MOL_WT>  (125) 
179.219

>  <LOGP>  (125) 
1.0769999999999995

>  <TPSA>  (125) 
52.32000000000001

>  <POPULARITY>  (125) 
12.4

>  <PROTECTED>  (125) 
TRUE

>  <SMILES>  (125) 
N[C@H](C)C(=O)OCc1ccccc1

>  <INCHIKEY>  (125) 
YGYLYUIRSJSFJS-MRVPVSSYSA-N

$$$$
Nle-al
     RDKit          2D

  8  7  0  0  0  0  0  0  0  0999 V2000
   -1.2088    1.5398    0.0000 N   0  0  0  0  0  0  0  0  0  0  0  0
   -1.1398    0.0414    0.0000 C   0  0  0  0  0  0  0  0  0  0  0  0
   -2.4029   -0.7676    0.0000 C   0  0  0  0  0  0  0  0  0  0  0  0
   -3.7351   -0.0782    0.0000 O   0  0  0  0  0  0  0  0  0  0  0  0
    0.1924   -0.6481    0.0000 C   0  0  0  0  0  0  0  0  0  0  0  0
    1.4556    0.1609    0.0000 C   0  0  0  0  0  0  0  0  0  0  0  0
    2.7877   -0.5286    0.0000 C   0  0  0  0  0  0  0  0  0  0  0  0
    4.0509    0.2804    0.0000 C   0  0  0  0  0  0  0  0  0  0  0  0
  2  1  1  1
  2  3  1  0
  3  4  2  0
  2  5  1  0
  5  6  1  0
  6  7  1  0
  7  8  1  0
M  END
>  <rName>  (126) 
Nle-al

>  <PQ_SYMBOL>  (126) 
Nle-al

>  <FULL_NAME>  (126) 
(2S)-2-aminohexanal

>  <IUPAC_CONDENSED>  (126) 
Nle-al

>  <IUPAC>  (126) 
(2S)-2-aminohexanal

>  <TYPE>  (126) 
C-term cap

>  <CLASS>  (126) 
c_cap

>  <ANALOG>  (126) 
X

>  <MOL_WT>  (126) 
115.176

>  <LOGP>  (126) 
0.7027999999999996

>  <TPSA>  (126) 
43.09

>  <POPULARITY>  (126) 
22.4

>  <PROTECTED>  (126) 
FALSE

>  <SMILES>  (126) 
N[C@H](C=O)CCCC

>  <INCHIKEY>  (126) 
TZJGKUCHNFFHGN-LURJTMIESA-N

$$$$
Tyr-OBn
     RDKit          2D

 20 21  0  0  0  0  0  0  0  0999 V2000
    0.8884    1.0519    0.0000 N   0  0  0  0  0  0  0  0  0  0  0  0
    0.8267   -0.4469    0.0000 C   0  0  0  0  0  0  0  0  0  0  0  0
    2.0938   -1.2496    0.0000 C   0  0  0  0  0  0  0  0  0  0  0  0
    3.4226   -0.5537    0.0000 C   0  0  0  0  0  0  0  0  0  0  0  0
    4.6897   -1.3564    0.0000 C   0  0  0  0  0  0  0  0  0  0  0  0
    6.0185   -0.6605    0.0000 C   0  0  0  0  0  0  0  0  0  0  0  0
    6.0801    0.8383    0.0000 C   0  0  0  0  0  0  0  0  0  0  0  0
    7.4089    1.5342    0.0000 O   0  0  0  0  0  0  0  0  0  0  0  0
    4.8130    1.6410    0.0000 C   0  0  0  0  0  0  0  0  0  0  0  0
    3.4842    0.9451    0.0000 C   0  0  0  0  0  0  0  0  0  0  0  0
   -0.5021   -1.1428    0.0000 C   0  0  0  0  0  0  0  0  0  0  0  0
   -0.5637   -2.6416    0.0000 O   0  0  0  0  0  0  0  0  0  0  0  0
   -1.7692   -0.3401    0.0000 O   0  0  0  0  0  0  0  0  0  0  0  0
   -3.0979   -1.0360    0.0000 C   0  0  0  0  0  0  0  0  0  0  0  0
   -4.3651   -0.2332    0.0000 C   0  0  0  0  0  0  0  0  0  0  0  0
   -4.3034    1.2655    0.0000 C   0  0  0  0  0  0  0  0  0  0  0  0
   -5.5705    2.0683    0.0000 C   0  0  0  0  0  0  0  0  0  0  0  0
   -6.8993    1.3723    0.0000 C   0  0  0  0  0  0  0  0  0  0  0  0
   -6.9609   -0.1264    0.0000 C   0  0  0  0  0  0  0  0  0  0  0  0
   -5.6938   -0.9292    0.0000 C   0  0  0  0  0  0  0  0  0  0  0  0
  2  1  1  1
  2  3  1  0
  3  4  1  0
  4  5  1  0
  5  6  2  0
  6  7  1  0
  7  8  1  0
  7  9  2  0
  9 10  1  0
  2 11  1  0
 11 12  2  0
 11 13  1  0
 13 14  1  0
 14 15  1  0
 15 16  2  0
 16 17  1  0
 17 18  2  0
 18 19  1  0
 19 20  2  0
 20 15  1  0
 10  4  2  0
M  END
>  <rName>  (127) 
Tyr-OBn

>  <PQ_SYMBOL>  (127) 
Tyr-OBn

>  <FULL_NAME>  (127) 
Tyrosine benzyl ester

>  <IUPAC_CONDENSED>  (127) 
Tyr-OBn

>  <IUPAC>  (127) 
benzyl (2S)-2-amino-3-(4-hydroxyphenyl)propanoate

>  <TYPE>  (127) 
C-term cap

>  <CLASS>  (127) 
c_cap

>  <ANALOG>  (127) 
X

>  <MOL_WT>  (127) 
271.316

>  <LOGP>  (127) 
2.0054

>  <TPSA>  (127) 
72.55

>  <POPULARITY>  (127) 
7.1

>  <PROTECTED>  (127) 
TRUE

>  <SMILES>  (127) 
N[C@@H](Cc2(ccc(O)cc2))C(=O)OCc1ccccc1

>  <INCHIKEY>  (127) 
BVCTWRNVKLXEQC-HNNXBMFYSA-N

$$$$
NPh4OMe-G
     RDKit          2D

 13 13  0  0  0  0  0  0  0  0999 V2000
   -1.5645   -0.6643    0.0000 N   0  0  0  0  0  0  0  0  0  0  0  0
   -0.1021   -0.3308    0.0000 C   0  0  0  0  0  0  0  0  0  0  0  0
    0.3403    1.1025    0.0000 C   0  0  0  0  0  0  0  0  0  0  0  0
    1.8028    1.4360    0.0000 C   0  0  0  0  0  0  0  0  0  0  0  0
    2.8228    0.3363    0.0000 C   0  0  0  0  0  0  0  0  0  0  0  0
    4.2853    0.6698    0.0000 O   0  0  0  0  0  0  0  0  0  0  0  0
    5.3053   -0.4300    0.0000 C   0  0  0  0  0  0  0  0  0  0  0  0
    2.3804   -1.0970    0.0000 C   0  0  0  0  0  0  0  0  0  0  0  0
    0.9180   -1.4305    0.0000 C   0  0  0  0  0  0  0  0  0  0  0  0
   -2.5846    0.4355    0.0000 C   0  0  0  0  0  0  0  0  0  0  0  0
   -4.0471    0.1020    0.0000 C   0  0  0  0  0  0  0  0  0  0  0  0
   -4.4894   -1.3313    0.0000 O   0  0  0  0  0  0  0  0  0  0  0  0
   -5.0671    1.2017    0.0000 O   0  0  0  0  0  0  0  0  0  0  0  0
  1  2  1  0
  2  3  1  0
  3  4  2  0
  4  5  1  0
  5  6  1  0
  6  7  1  0
  5  8  2  0
  8  9  1  0
  1 10  1  0
 10 11  1  0
 11 12  2  0
 11 13  1  0
  9  2  2  0
M  END
>  <rName>  (128) 
NPh4OMe-G

>  <PQ_SYMBOL>  (128) 
NPh4OMe-G

>  <FULL_NAME>  (128) 
2-(4-methoxyanilino)acetic acid

>  <IUPAC_CONDENSED>  (128) 
N-Ph(4-OMe)-Gly

>  <IUPAC>  (128) 
2-((4-methoxyphenyl)amino)acetic acid

>  <TYPE>  (128) 
N-term cap

>  <CLASS>  (128) 
n_cap

>  <ANALOG>  (128) 
X

>  <MOL_WT>  (128) 
181.19099999999997

>  <LOGP>  (128) 
1.1917

>  <TPSA>  (128) 
58.56

>  <POPULARITY>  (128) 
12.6

>  <PROTECTED>  (128) 
TRUE

>  <SMILES>  (128) 
N(c1(ccc(OC)cc1))CC(=O)O

>  <INCHIKEY>  (128) 
NJVJSULZTHOJGT-UHFFFAOYSA-N

$$$$
3Me-uracil-6-carbonyl
     RDKit          2D

 12 12  0  0  0  0  0  0  0  0999 V2000
    3.3750    0.0000    0.0000 C   0  0  0  0  0  0  0  0  0  0  0  0
    1.8750    0.0000    0.0000 N   0  0  0  0  0  0  0  0  0  0  0  0
    1.1250   -1.2990    0.0000 C   0  0  0  0  0  0  0  0  0  0  0  0
    1.8750   -2.5981    0.0000 O   0  0  0  0  0  0  0  0  0  0  0  0
   -0.3750   -1.2990    0.0000 C   0  0  0  0  0  0  0  0  0  0  0  0
   -1.1250    0.0000    0.0000 C   0  0  0  0  0  0  0  0  0  0  0  0
   -0.3750    1.2990    0.0000 N   0  0  0  0  0  0  0  0  0  0  0  0
    1.1250    1.2990    0.0000 C   0  0  0  0  0  0  0  0  0  0  0  0
    1.8750    2.5981    0.0000 O   0  0  0  0  0  0  0  0  0  0  0  0
   -2.6250    0.0000    0.0000 C   0  0  0  0  0  0  0  0  0  0  0  0
   -3.3750   -1.2990    0.0000 O   0  0  0  0  0  0  0  0  0  0  0  0
   -3.3750    1.2990    0.0000 O   0  0  0  0  0  0  0  0  0  0  0  0
  1  2  1  0
  2  3  1  0
  3  4  2  0
  3  5  1  0
  5  6  2  0
  6  7  1  0
  7  8  1  0
  8  9  2  0
  6 10  1  0
 10 11  2  0
 10 12  1  0
  8  2  1  0
M  END
>  <rName>  (129) 
3Me-uracil-6-carbonyl

>  <PQ_SYMBOL>  (129) 
3Me-uracil-6-carbonyl

>  <FULL_NAME>  (129) 
3-methyl-2,4-dioxo-1H-pyrimidine-6-carboxylic acid

>  <IUPAC_CONDENSED>  (129) 
3Me-uracil-6-carbonyl

>  <IUPAC>  (129) 
1-methyl-2,6-dioxo-1,3-diazacyclohex-4-ene-4-carboxylic acid

>  <TYPE>  (129) 
N-term cap

>  <CLASS>  (129) 
n_cap

>  <ANALOG>  (129) 
X

>  <MOL_WT>  (129) 
170.124

>  <LOGP>  (129) 
-1.2282

>  <TPSA>  (129) 
92.16000000000001

>  <POPULARITY>  (129) 
7.2

>  <PROTECTED>  (129) 
TRUE

>  <SMILES>  (129) 
Cn1c(=O)cc([nH]c1=O)C(=O)O

>  <INCHIKEY>  (129) 
OEGWVZNGNUHUQP-UHFFFAOYSA-N

$$$$
Arg-benzothiazol-2-yl_6CO2H
     RDKit          2D

 23 24  0  0  0  0  0  0  0  0999 V2000
   -1.5210    1.3291    0.0000 N   0  0  0  0  0  0  0  0  0  0  0  0
   -1.8053   -0.1437    0.0000 C   0  0  0  0  0  0  0  0  0  0  0  0
   -3.2229   -0.6339    0.0000 C   0  0  0  0  0  0  0  0  0  0  0  0
   -4.3563    0.3487    0.0000 C   0  0  0  0  0  0  0  0  0  0  0  0
   -5.7739   -0.1415    0.0000 C   0  0  0  0  0  0  0  0  0  0  0  0
   -6.9073    0.8411    0.0000 N   0  0  0  0  0  0  0  0  0  0  0  0
   -8.3249    0.3509    0.0000 C   0  0  0  0  0  0  0  0  0  0  0  0
   -8.6092   -1.1219    0.0000 N   0  0  0  0  0  0  0  0  0  0  0  0
   -9.4583    1.3335    0.0000 N   0  0  0  0  0  0  0  0  0  0  0  0
   -0.6720   -1.1263    0.0000 C   0  0  0  0  0  0  0  0  0  0  0  0
   -0.9562   -2.5991    0.0000 O   0  0  0  0  0  0  0  0  0  0  0  0
    0.7457   -0.6361    0.0000 C   0  0  0  0  0  0  0  0  0  0  0  0
    1.9755   -1.4948    0.0000 S   0  0  0  0  0  0  0  0  0  0  0  0
    3.1723   -0.5905    0.0000 C   0  0  0  0  0  0  0  0  0  0  0  0
    4.6451   -0.8748    0.0000 C   0  0  0  0  0  0  0  0  0  0  0  0
    5.6277    0.2585    0.0000 C   0  0  0  0  0  0  0  0  0  0  0  0
    5.1375    1.6762    0.0000 C   0  0  0  0  0  0  0  0  0  0  0  0
    3.6647    1.9604    0.0000 C   0  0  0  0  0  0  0  0  0  0  0  0
    2.6821    0.8271    0.0000 C   0  0  0  0  0  0  0  0  0  0  0  0
    1.1824    0.7989    0.0000 N   0  0  0  0  0  0  0  0  0  0  0  0
    7.1005   -0.0258    0.0000 C   0  0  0  0  0  0  0  0  0  0  0  0
    8.0831    1.1076    0.0000 O   0  0  0  0  0  0  0  0  0  0  0  0
    7.5907   -1.4434    0.0000 O   0  0  0  0  0  0  0  0  0  0  0  0
  2  1  1  6
  2  3  1  0
  3  4  1  0
  4  5  1  0
  5  6  1  0
  6  7  1  0
  7  8  2  0
  7  9  1  0
  2 10  1  0
 10 11  2  0
 10 12  1  0
 12 13  1  0
 13 14  1  0
 14 15  1  0
 15 16  2  0
 16 17  1  0
 17 18  2  0
 18 19  1  0
 19 20  1  0
 16 21  1  0
 21 22  2  0
 21 23  1  0
 19 14  2  0
 20 12  2  0
M  END
>  <rName>  (130) 
Arg-benzothiazol-2-yl_6CO2H

>  <PQ_SYMBOL>  (130) 
Arg-benzothiazol-2-yl_6CO2H

>  <FULL_NAME>  (130) 
2-[(2S)-2-amino-5-(diaminomethylideneamino)pentanoyl]-1,3-benzothiazole-6-carboxylic acid

>  <IUPAC_CONDENSED>  (130) 
Arg-benzothiazol-2-yl(6-CO2H)

>  <IUPAC>  (130) 
2-((2S)-2-amino-5-(((amino)(imino)methyl)amino)-pentanoyl)benzothiazole-6-carboxylic acid

>  <TYPE>  (130) 
C-term cap

>  <CLASS>  (130) 
c_cap

>  <ANALOG>  (130) 
X

>  <MOL_WT>  (130) 
335.38900000000007

>  <LOGP>  (130) 
0.7677700000000002

>  <TPSA>  (130) 
155.18

>  <POPULARITY>  (130) 
2.8

>  <PROTECTED>  (130) 
FALSE

>  <SMILES>  (130) 
N[C@@H](CCCNC(=N)N)C(=O)c2sc1cc(ccc1n2)C(=O)O

>  <INCHIKEY>  (130) 
FNGTVLJWXRDWAE-QMMMGPOBSA-N

$$$$
Asp-OBn
     RDKit          2D

 16 16  0  0  0  0  0  0  0  0999 V2000
   -2.2343    1.5490    0.0000 N   0  0  0  0  0  0  0  0  0  0  0  0
   -2.3581    0.0541    0.0000 C   0  0  0  0  0  0  0  0  0  0  0  0
   -3.7146   -0.5861    0.0000 C   0  0  0  0  0  0  0  0  0  0  0  0
   -4.9473    0.2685    0.0000 C   0  0  0  0  0  0  0  0  0  0  0  0
   -4.8235    1.7634    0.0000 O   0  0  0  0  0  0  0  0  0  0  0  0
   -6.3038   -0.3717    0.0000 O   0  0  0  0  0  0  0  0  0  0  0  0
   -1.1254   -0.8005    0.0000 C   0  0  0  0  0  0  0  0  0  0  0  0
   -1.2491   -2.2954    0.0000 O   0  0  0  0  0  0  0  0  0  0  0  0
    0.2311   -0.1602    0.0000 O   0  0  0  0  0  0  0  0  0  0  0  0
    1.4639   -1.0149    0.0000 C   0  0  0  0  0  0  0  0  0  0  0  0
    2.8204   -0.3746    0.0000 C   0  0  0  0  0  0  0  0  0  0  0  0
    2.9441    1.1203    0.0000 C   0  0  0  0  0  0  0  0  0  0  0  0
    4.3006    1.7605    0.0000 C   0  0  0  0  0  0  0  0  0  0  0  0
    5.5333    0.9059    0.0000 C   0  0  0  0  0  0  0  0  0  0  0  0
    5.4096   -0.5890    0.0000 C   0  0  0  0  0  0  0  0  0  0  0  0
    4.0531   -1.2293    0.0000 C   0  0  0  0  0  0  0  0  0  0  0  0
  2  1  1  6
  2  3  1  0
  3  4  1  0
  4  5  2  0
  4  6  1  0
  2  7  1  0
  7  8  2  0
  7  9  1  0
  9 10  1  0
 10 11  1  0
 11 12  2  0
 12 13  1  0
 13 14  2  0
 14 15  1  0
 15 16  2  0
 16 11  1  0
M  END
>  <rName>  (131) 
Asp-OBn

>  <PQ_SYMBOL>  (131) 
Asp-OBn

>  <FULL_NAME>  (131) 
L-Aspartic acid alpha-benzyl ester

>  <IUPAC_CONDENSED>  (131) 
Asp-OBn

>  <IUPAC>  (131) 
(3S)-3-amino-3-(benzyloxycarbonyl)propanoic acid

>  <TYPE>  (131) 
C-term cap

>  <CLASS>  (131) 
c_cap

>  <ANALOG>  (131) 
X

>  <MOL_WT>  (131) 
223.22799999999998

>  <LOGP>  (131) 
0.5317999999999996

>  <TPSA>  (131) 
89.62000000000002

>  <POPULARITY>  (131) 
7.6

>  <PROTECTED>  (131) 
TRUE

>  <SMILES>  (131) 
N[C@@H](CC(=O)O)C(=O)OCc1ccccc1

>  <INCHIKEY>  (131) 
NJSRYBIBUXBNSW-VIFPVBQESA-N

$$$$
Pip-OMe
     RDKit          2D

 10 10  0  0  0  0  0  0  0  0999 V2000
    1.0075   -1.3067    0.0000 N   0  0  0  0  0  0  0  0  0  0  0  0
    0.0916   -0.1188    0.0000 C   0  0  0  0  0  0  0  0  0  0  0  0
    0.6624    1.2683    0.0000 C   0  0  0  0  0  0  0  0  0  0  0  0
    2.1491    1.4676    0.0000 C   0  0  0  0  0  0  0  0  0  0  0  0
    3.0650    0.2796    0.0000 C   0  0  0  0  0  0  0  0  0  0  0  0
    2.4942   -1.1075    0.0000 C   0  0  0  0  0  0  0  0  0  0  0  0
   -1.3951   -0.3180    0.0000 C   0  0  0  0  0  0  0  0  0  0  0  0
   -1.9660   -1.7051    0.0000 O   0  0  0  0  0  0  0  0  0  0  0  0
   -2.3110    0.8699    0.0000 O   0  0  0  0  0  0  0  0  0  0  0  0
   -3.7977    0.6707    0.0000 C   0  0  0  0  0  0  0  0  0  0  0  0
  1  2  1  0
  2  3  1  0
  3  4  1  0
  4  5  1  0
  5  6  1  0
  2  7  1  6
  7  8  2  0
  7  9  1  0
  9 10  1  0
  6  1  1  0
M  END
>  <rName>  (132) 
Pip-OMe

>  <PQ_SYMBOL>  (132) 
Pip-OMe

>  <FULL_NAME>  (132) 
D-Pipecolic acid methyl ester

>  <IUPAC_CONDENSED>  (132) 
Pip-OMe

>  <IUPAC>  (132) 
methyl (2S)-piperidine-2-carboxylate

>  <TYPE>  (132) 
C-term cap

>  <CLASS>  (132) 
c_cap

>  <ANALOG>  (132) 
X

>  <MOL_WT>  (132) 
143.186

>  <LOGP>  (132) 
0.3014999999999999

>  <TPSA>  (132) 
38.33

>  <POPULARITY>  (132) 
11.1

>  <PROTECTED>  (132) 
TRUE

>  <SMILES>  (132) 
N1[C@@H](CCCC1)C(=O)OC

>  <INCHIKEY>  (132) 
CXQTTWVBUDFUNO-LURJTMIESA-N

$$$$
Phe-OEt
     RDKit          2D

 14 14  0  0  0  0  0  0  0  0999 V2000
   -0.4946    1.4988    0.0000 N   0  0  0  0  0  0  0  0  0  0  0  0
   -0.7497    0.0207    0.0000 C   0  0  0  0  0  0  0  0  0  0  0  0
   -2.1574   -0.4975    0.0000 C   0  0  0  0  0  0  0  0  0  0  0  0
   -2.4125   -1.9756    0.0000 O   0  0  0  0  0  0  0  0  0  0  0  0
   -3.3099    0.4625    0.0000 O   0  0  0  0  0  0  0  0  0  0  0  0
   -4.7176   -0.0557    0.0000 C   0  0  0  0  0  0  0  0  0  0  0  0
   -5.8702    0.9043    0.0000 C   0  0  0  0  0  0  0  0  0  0  0  0
    0.4029   -0.9393    0.0000 C   0  0  0  0  0  0  0  0  0  0  0  0
    1.8105   -0.4212    0.0000 C   0  0  0  0  0  0  0  0  0  0  0  0
    2.0656    1.0570    0.0000 C   0  0  0  0  0  0  0  0  0  0  0  0
    3.4733    1.5751    0.0000 C   0  0  0  0  0  0  0  0  0  0  0  0
    4.6258    0.6151    0.0000 C   0  0  0  0  0  0  0  0  0  0  0  0
    4.3707   -0.8630    0.0000 C   0  0  0  0  0  0  0  0  0  0  0  0
    2.9631   -1.3812    0.0000 C   0  0  0  0  0  0  0  0  0  0  0  0
  2  1  1  1
  2  3  1  0
  3  4  2  0
  3  5  1  0
  5  6  1  0
  6  7  1  0
  2  8  1  0
  8  9  1  0
  9 10  2  0
 10 11  1  0
 11 12  2  0
 12 13  1  0
 13 14  2  0
 14  9  1  0
M  END
>  <rName>  (133) 
Phe-OEt

>  <PQ_SYMBOL>  (133) 
Phe-OEt

>  <FULL_NAME>  (133) 
ethyl (2S)-2-amino-3-phenylpropanoate

>  <IUPAC_CONDENSED>  (133) 
Phe-OEt

>  <IUPAC>  (133) 
ethyl (2S)-2-amino-3-phenylpropanoate

>  <TYPE>  (133) 
C-term cap

>  <CLASS>  (133) 
c_cap

>  <ANALOG>  (133) 
X

>  <MOL_WT>  (133) 
193.24600000000004

>  <LOGP>  (133) 
1.1194999999999997

>  <TPSA>  (133) 
52.32000000000001

>  <POPULARITY>  (133) 
13.8

>  <PROTECTED>  (133) 
TRUE

>  <SMILES>  (133) 
N[C@H](C(=O)OCC)Cc1ccccc1

>  <INCHIKEY>  (133) 
CJGXMNONHNZEQQ-JTQLQIEISA-N

$$$$
hPhe-OMe
     RDKit          2D

 14 14  0  0  0  0  0  0  0  0999 V2000
   -2.1551   -2.0870    0.0000 N   0  0  0  0  0  0  0  0  0  0  0  0
   -1.9539   -0.6006    0.0000 C   0  0  0  0  0  0  0  0  0  0  0  0
   -3.1407    0.3168    0.0000 C   0  0  0  0  0  0  0  0  0  0  0  0
   -2.9396    1.8033    0.0000 O   0  0  0  0  0  0  0  0  0  0  0  0
   -4.5286   -0.2522    0.0000 O   0  0  0  0  0  0  0  0  0  0  0  0
   -5.7153    0.6652    0.0000 C   0  0  0  0  0  0  0  0  0  0  0  0
   -0.5661   -0.0315    0.0000 C   0  0  0  0  0  0  0  0  0  0  0  0
    0.6207   -0.9489    0.0000 C   0  0  0  0  0  0  0  0  0  0  0  0
    2.0085   -0.3799    0.0000 C   0  0  0  0  0  0  0  0  0  0  0  0
    2.2097    1.1066    0.0000 C   0  0  0  0  0  0  0  0  0  0  0  0
    3.5975    1.6756    0.0000 C   0  0  0  0  0  0  0  0  0  0  0  0
    4.7843    0.7582    0.0000 C   0  0  0  0  0  0  0  0  0  0  0  0
    4.5832   -0.7282    0.0000 C   0  0  0  0  0  0  0  0  0  0  0  0
    3.1953   -1.2973    0.0000 C   0  0  0  0  0  0  0  0  0  0  0  0
  2  1  1  6
  2  3  1  0
  3  4  2  0
  3  5  1  0
  5  6  1  0
  2  7  1  0
  7  8  1  0
  8  9  1  0
  9 10  2  0
 10 11  1  0
 11 12  2  0
 12 13  1  0
 13 14  2  0
 14  9  1  0
M  END
>  <rName>  (134) 
hPhe-OMe

>  <PQ_SYMBOL>  (134) 
hPhe-OMe

>  <FULL_NAME>  (134) 
Homophenylalanine methyl ester

>  <IUPAC_CONDENSED>  (134) 
hPhe-OMe

>  <IUPAC>  (134) 
methyl (2S)-2-amino-4-phenylbutanoate

>  <TYPE>  (134) 
C-term cap

>  <CLASS>  (134) 
c_cap

>  <ANALOG>  (134) 
X

>  <MOL_WT>  (134) 
193.24600000000004

>  <LOGP>  (134) 
1.1194999999999997

>  <TPSA>  (134) 
52.32000000000001

>  <POPULARITY>  (134) 
12.7

>  <PROTECTED>  (134) 
TRUE

>  <SMILES>  (134) 
N[C@H](C(=O)OC)CCc1ccccc1

>  <INCHIKEY>  (134) 
YEPNFOMBMXWUOG-JTQLQIEISA-N

$$$$
Bes-Gly
     RDKit          2D

 14 14  0  0  0  0  0  0  0  0999 V2000
    4.3859   -0.4456    0.0000 C   0  0  0  0  0  0  0  0  0  0  0  0
    3.4092   -1.5840    0.0000 C   0  0  0  0  0  0  0  0  0  0  0  0
    1.9349   -1.3073    0.0000 C   0  0  0  0  0  0  0  0  0  0  0  0
    1.4374    0.1078    0.0000 C   0  0  0  0  0  0  0  0  0  0  0  0
    2.4142    1.2462    0.0000 C   0  0  0  0  0  0  0  0  0  0  0  0
    3.8884    0.9695    0.0000 C   0  0  0  0  0  0  0  0  0  0  0  0
   -0.0368    0.3845    0.0000 S   0  0  0  0  0  0  0  0  0  0  0  0
    0.2399    1.8588    0.0000 O   0  0  0  0  0  0  0  0  0  0  0  0
   -0.3135   -1.0897    0.0000 O   0  0  0  0  0  0  0  0  0  0  0  0
   -1.5111    0.6613    0.0000 N   0  0  0  0  0  0  0  0  0  0  0  0
   -2.4879   -0.4771    0.0000 C   0  0  0  0  0  0  0  0  0  0  0  0
   -3.9621   -0.2004    0.0000 C   0  0  0  0  0  0  0  0  0  0  0  0
   -4.4596    1.2147    0.0000 O   0  0  0  0  0  0  0  0  0  0  0  0
   -4.9389   -1.3388    0.0000 O   0  0  0  0  0  0  0  0  0  0  0  0
  1  2  2  0
  2  3  1  0
  3  4  2  0
  4  5  1  0
  5  6  2  0
  4  7  1  0
  7  8  2  0
  7  9  2  0
  7 10  1  0
 10 11  1  0
 11 12  1  0
 12 13  2  0
 12 14  1  0
  6  1  1  0
M  END
>  <rName>  (135) 
Bes-Gly

>  <PQ_SYMBOL>  (135) 
Bes-Gly

>  <FULL_NAME>  (135) 
2-(benzenesulfonamido)acetic acid

>  <IUPAC_CONDENSED>  (135) 
Bes-Gly

>  <IUPAC>  (135) 
2-phenylsulfonylaminoacetic acid

>  <TYPE>  (135) 
N-term cap

>  <CLASS>  (135) 
n_cap

>  <ANALOG>  (135) 
X

>  <MOL_WT>  (135) 
215.22999999999996

>  <LOGP>  (135) 
0.04949999999999988

>  <TPSA>  (135) 
83.47

>  <POPULARITY>  (135) 
15.7

>  <PROTECTED>  (135) 
TRUE

>  <SMILES>  (135) 
c1ccc(cc1)S(=O)(=O)NCC(=O)O

>  <INCHIKEY>  (135) 
WTSZSAHZIMPSDM-UHFFFAOYSA-N

$$$$
NBn-Y
     RDKit          2D

 20 21  0  0  0  0  0  0  0  0999 V2000
    1.2907    0.5453    0.0000 N   0  0  0  0  0  0  0  0  0  0  0  0
    2.3496   -0.5171    0.0000 C   0  0  0  0  0  0  0  0  0  0  0  0
    3.7991   -0.1312    0.0000 C   0  0  0  0  0  0  0  0  0  0  0  0
    4.8581   -1.1936    0.0000 C   0  0  0  0  0  0  0  0  0  0  0  0
    6.3076   -0.8077    0.0000 C   0  0  0  0  0  0  0  0  0  0  0  0
    6.6982    0.6406    0.0000 C   0  0  0  0  0  0  0  0  0  0  0  0
    5.6392    1.7030    0.0000 C   0  0  0  0  0  0  0  0  0  0  0  0
    4.1897    1.3171    0.0000 C   0  0  0  0  0  0  0  0  0  0  0  0
   -0.1588    0.1594    0.0000 C   0  0  0  0  0  0  0  0  0  0  0  0
   -1.2178    1.2217    0.0000 C   0  0  0  0  0  0  0  0  0  0  0  0
   -2.6673    0.8358    0.0000 C   0  0  0  0  0  0  0  0  0  0  0  0
   -3.7263    1.8982    0.0000 C   0  0  0  0  0  0  0  0  0  0  0  0
   -5.1758    1.5123    0.0000 C   0  0  0  0  0  0  0  0  0  0  0  0
   -5.5663    0.0640    0.0000 C   0  0  0  0  0  0  0  0  0  0  0  0
   -7.0158   -0.3219    0.0000 O   0  0  0  0  0  0  0  0  0  0  0  0
   -4.5074   -0.9984    0.0000 C   0  0  0  0  0  0  0  0  0  0  0  0
   -3.0579   -0.6125    0.0000 C   0  0  0  0  0  0  0  0  0  0  0  0
   -0.5494   -1.2889    0.0000 C   0  0  0  0  0  0  0  0  0  0  0  0
    0.5096   -2.3513    0.0000 O   0  0  0  0  0  0  0  0  0  0  0  0
   -1.9989   -1.6748    0.0000 O   0  0  0  0  0  0  0  0  0  0  0  0
  1  2  1  0
  2  3  1  0
  3  4  2  0
  4  5  1  0
  5  6  2  0
  6  7  1  0
  7  8  2  0
  1  9  1  0
  9 10  1  6
 10 11  1  0
 11 12  1  0
 12 13  2  0
 13 14  1  0
 14 15  1  0
 14 16  2  0
 16 17  1  0
  9 18  1  0
 18 19  2  0
 18 20  1  0
  8  3  1  0
 17 11  2  0
M  END
>  <rName>  (136) 
NBn-Y

>  <PQ_SYMBOL>  (136) 
NBn-Y

>  <FULL_NAME>  (136) 
(2S)-2-(benzylamino)-3-(4-hydroxyphenyl)propanoic acid

>  <IUPAC_CONDENSED>  (136) 
Bn-Tyr

>  <IUPAC>  (136) 
(2S)-2-(benzylamino)-3-(4-hydroxyphenyl)propanoic acid

>  <TYPE>  (136) 
N-term cap

>  <CLASS>  (136) 
n_cap

>  <ANALOG>  (136) 
X

>  <MOL_WT>  (136) 
271.316

>  <LOGP>  (136) 
2.1776999999999997

>  <TPSA>  (136) 
69.56

>  <POPULARITY>  (136) 
16.9

>  <PROTECTED>  (136) 
TRUE

>  <SMILES>  (136) 
N(Cc1(ccccc1))[C@@H](Cc2(ccc(O)cc2))C(=O)O

>  <INCHIKEY>  (136) 
WUTPXBXSEMJIDW-HNNXBMFYSA-N

$$$$
Pro-OMe
     RDKit          2D

  9  9  0  0  0  0  0  0  0  0999 V2000
   -1.0828   -1.2444    0.0000 N   0  0  0  0  0  0  0  0  0  0  0  0
   -0.3918    0.0869    0.0000 C   0  0  0  0  0  0  0  0  0  0  0  0
   -1.4444    1.1555    0.0000 C   0  0  0  0  0  0  0  0  0  0  0  0
   -2.7860    0.4846    0.0000 C   0  0  0  0  0  0  0  0  0  0  0  0
   -2.5625   -0.9986    0.0000 C   0  0  0  0  0  0  0  0  0  0  0  0
    1.0915    0.3104    0.0000 C   0  0  0  0  0  0  0  0  0  0  0  0
    1.6396    1.7067    0.0000 O   0  0  0  0  0  0  0  0  0  0  0  0
    2.0267   -0.8624    0.0000 O   0  0  0  0  0  0  0  0  0  0  0  0
    3.5099   -0.6389    0.0000 C   0  0  0  0  0  0  0  0  0  0  0  0
  1  2  1  0
  2  3  1  0
  3  4  1  0
  4  5  1  0
  2  6  1  1
  6  7  2  0
  6  8  1  0
  8  9  1  0
  5  1  1  0
M  END
>  <rName>  (137) 
Pro-OMe

>  <PQ_SYMBOL>  (137) 
Pro-OMe

>  <FULL_NAME>  (137) 
L-Proline methyl ester

>  <IUPAC_CONDENSED>  (137) 
Pro-OMe

>  <IUPAC>  (137) 
methyl (2S)-pyrrolidine-2-carboxylate

>  <TYPE>  (137) 
C-term cap

>  <CLASS>  (137) 
c_cap

>  <ANALOG>  (137) 
X

>  <MOL_WT>  (137) 
129.159

>  <LOGP>  (137) 
-0.08860000000000023

>  <TPSA>  (137) 
38.33

>  <POPULARITY>  (137) 
18.6

>  <PROTECTED>  (137) 
TRUE

>  <SMILES>  (137) 
N1[C@@H](CCC1)C(=O)OC

>  <INCHIKEY>  (137) 
BLWYXBNNBYXPPL-YFKPBYRVSA-N

$$$$
Met-OMe
     RDKit          2D

 10  9  0  0  0  0  0  0  0  0999 V2000
   -0.2656    1.8966    0.0000 N   0  0  0  0  0  0  0  0  0  0  0  0
   -0.3642    0.3998    0.0000 C   0  0  0  0  0  0  0  0  0  0  0  0
   -1.7097   -0.2632    0.0000 C   0  0  0  0  0  0  0  0  0  0  0  0
   -1.8084   -1.7599    0.0000 O   0  0  0  0  0  0  0  0  0  0  0  0
   -2.9567    0.5706    0.0000 O   0  0  0  0  0  0  0  0  0  0  0  0
   -4.3022   -0.0924    0.0000 C   0  0  0  0  0  0  0  0  0  0  0  0
    0.8827   -0.4340    0.0000 C   0  0  0  0  0  0  0  0  0  0  0  0
    2.2282    0.2290    0.0000 C   0  0  0  0  0  0  0  0  0  0  0  0
    3.4752   -0.6047    0.0000 S   0  0  0  0  0  0  0  0  0  0  0  0
    4.8207    0.0582    0.0000 C   0  0  0  0  0  0  0  0  0  0  0  0
  2  1  1  1
  2  3  1  0
  3  4  2  0
  3  5  1  0
  5  6  1  0
  2  7  1  0
  7  8  1  0
  8  9  1  0
  9 10  1  0
M  END
>  <rName>  (138) 
Met-OMe

>  <PQ_SYMBOL>  (138) 
Met-OMe

>  <FULL_NAME>  (138) 
L-Methionine methyl ester

>  <IUPAC_CONDENSED>  (138) 
Met-OMe

>  <IUPAC>  (138) 
methyl (2S)-2-amino-4-(methylsulfanyl)butanoate

>  <TYPE>  (138) 
C-term cap

>  <CLASS>  (138) 
c_cap

>  <ANALOG>  (138) 
X

>  <MOL_WT>  (138) 
163.242

>  <LOGP>  (138) 
0.2398

>  <TPSA>  (138) 
52.32000000000001

>  <POPULARITY>  (138) 
16.6

>  <PROTECTED>  (138) 
TRUE

>  <SMILES>  (138) 
N[C@H](C(=O)OC)CCSC

>  <INCHIKEY>  (138) 
UIHPNZDZCOEZEN-YFKPBYRVSA-N

$$$$
Pip_6carbonyl
     RDKit          2D

 10 10  0  0  0  0  0  0  0  0999 V2000
   -2.2529   -0.8671    0.0000 C   0  0  0  0  0  0  0  0  0  0  0  0
   -1.8615    0.5809    0.0000 C   0  0  0  0  0  0  0  0  0  0  0  0
   -2.9197    1.6440    0.0000 O   0  0  0  0  0  0  0  0  0  0  0  0
   -0.4117    0.9659    0.0000 N   0  0  0  0  0  0  0  0  0  0  0  0
    0.6466   -0.0971    0.0000 C   0  0  0  0  0  0  0  0  0  0  0  0
    0.2551   -1.5451    0.0000 C   0  0  0  0  0  0  0  0  0  0  0  0
   -1.1946   -1.9301    0.0000 C   0  0  0  0  0  0  0  0  0  0  0  0
    2.0963    0.2879    0.0000 C   0  0  0  0  0  0  0  0  0  0  0  0
    2.4878    1.7359    0.0000 O   0  0  0  0  0  0  0  0  0  0  0  0
    3.1546   -0.7752    0.0000 O   0  0  0  0  0  0  0  0  0  0  0  0
  1  2  1  0
  2  3  2  0
  2  4  1  0
  4  5  1  0
  5  6  1  0
  6  7  1  0
  5  8  1  6
  8  9  2  0
  8 10  1  0
  7  1  1  0
M  END
>  <rName>  (139) 
Pip_6carbonyl

>  <PQ_SYMBOL>  (139) 
Pip_6carbonyl

>  <FULL_NAME>  (139) 
(2S)-6-oxopiperidine-2-carboxylic acid

>  <IUPAC_CONDENSED>  (139) 
Pip(6-carbonyl)

>  <IUPAC>  (139) 
(2S)-6-oxopiperidine-2-carboxylic acid

>  <TYPE>  (139) 
N-term cap

>  <CLASS>  (139) 
n_cap

>  <ANALOG>  (139) 
X

>  <MOL_WT>  (139) 
143.142

>  <LOGP>  (139) 
-0.2602999999999998

>  <TPSA>  (139) 
66.4

>  <POPULARITY>  (139) 
14.7

>  <PROTECTED>  (139) 
TRUE

>  <SMILES>  (139) 
C1C(=O)N[C@@H](CC1)C(=O)O

>  <INCHIKEY>  (139) 
FZXCPFJMYOQZCA-BYPYZUCNSA-N

$$$$
DTPA
     RDKit          2D

 27 26  0  0  0  0  0  0  0  0999 V2000
    7.9394   -1.2421    0.0000 O   0  0  0  0  0  0  0  0  0  0  0  0
    6.6749   -0.4352    0.0000 C   0  0  0  0  0  0  0  0  0  0  0  0
    6.7414    1.0633    0.0000 O   0  0  0  0  0  0  0  0  0  0  0  0
    5.3439   -1.1269    0.0000 C   0  0  0  0  0  0  0  0  0  0  0  0
    4.0794   -0.3200    0.0000 N   0  0  0  0  0  0  0  0  0  0  0  0
    4.1459    1.1785    0.0000 C   0  0  0  0  0  0  0  0  0  0  0  0
    2.8814    1.9853    0.0000 C   0  0  0  0  0  0  0  0  0  0  0  0
    1.5504    1.2937    0.0000 O   0  0  0  0  0  0  0  0  0  0  0  0
    2.9479    3.4839    0.0000 O   0  0  0  0  0  0  0  0  0  0  0  0
    2.7484   -1.0117    0.0000 C   0  0  0  0  0  0  0  0  0  0  0  0
    1.4839   -0.2049    0.0000 C   0  0  0  0  0  0  0  0  0  0  0  0
    0.1529   -0.8965    0.0000 N   0  0  0  0  0  0  0  0  0  0  0  0
    0.0864   -2.3951    0.0000 C   0  0  0  0  0  0  0  0  0  0  0  0
   -1.2446   -3.0867    0.0000 C   0  0  0  0  0  0  0  0  0  0  0  0
   -2.5092   -2.2799    0.0000 O   0  0  0  0  0  0  0  0  0  0  0  0
   -1.3111   -4.5853    0.0000 O   0  0  0  0  0  0  0  0  0  0  0  0
   -1.1117   -0.0897    0.0000 C   0  0  0  0  0  0  0  0  0  0  0  0
   -2.4427   -0.7814    0.0000 C   0  0  0  0  0  0  0  0  0  0  0  0
   -3.7072    0.0255    0.0000 N   0  0  0  0  0  0  0  0  0  0  0  0
   -5.0382   -0.6662    0.0000 C   0  0  0  0  0  0  0  0  0  0  0  0
   -6.3027    0.1407    0.0000 C   0  0  0  0  0  0  0  0  0  0  0  0
   -6.2362    1.6392    0.0000 O   0  0  0  0  0  0  0  0  0  0  0  0
   -7.6337   -0.5510    0.0000 O   0  0  0  0  0  0  0  0  0  0  0  0
   -3.6407    1.5240    0.0000 C   0  0  0  0  0  0  0  0  0  0  0  0
   -2.3097    2.2157    0.0000 C   0  0  0  0  0  0  0  0  0  0  0  0
   -1.0452    1.4088    0.0000 O   0  0  0  0  0  0  0  0  0  0  0  0
   -2.2432    3.7142    0.0000 O   0  0  0  0  0  0  0  0  0  0  0  0
  1  2  1  0
  2  3  2  0
  2  4  1  0
  4  5  1  0
  5  6  1  0
  6  7  1  0
  7  8  2  0
  7  9  1  0
  5 10  1  0
 10 11  1  0
 11 12  1  0
 12 13  1  0
 13 14  1  0
 14 15  2  0
 14 16  1  0
 12 17  1  0
 17 18  1  0
 18 19  1  0
 19 20  1  0
 20 21  1  0
 21 22  2  0
 21 23  1  0
 19 24  1  0
 24 25  1  0
 25 26  2  0
 25 27  1  0
M  END
>  <rName>  (140) 
DTPA

>  <PQ_SYMBOL>  (140) 
DTPA

>  <FULL_NAME>  (140) 
2-[bis[2-[bis(carboxymethyl)amino]ethyl]amino]acetic acid

>  <IUPAC_CONDENSED>  (140) 
DTPA

>  <IUPAC>  (140) 
2-((2-((2-(bis(2-hydroxy-2-oxoethyl)amino)ethyl)(2-hydroxy-2-oxoethyl)amino)ethyl)(2-hydroxy-2-oxoethyl)amino)acetic acid

>  <TYPE>  (140) 
N-term cap

>  <CLASS>  (140) 
n_cap

>  <ANALOG>  (140) 
X

>  <MOL_WT>  (140) 
393.34900000000016

>  <LOGP>  (140) 
-2.6845999999999934

>  <TPSA>  (140) 
196.21999999999997

>  <POPULARITY>  (140) 
17.4

>  <PROTECTED>  (140) 
TRUE

>  <SMILES>  (140) 
OC(=O)CN(CC(=O)O)CCN(CC(=O)O)CCN(CC(=O)O)CC(=O)O

>  <INCHIKEY>  (140) 
QPCDCPDFJACHGM-UHFFFAOYSA-N

$$$$
NMe2Tyr
     RDKit          2D

 15 15  0  0  0  0  0  0  0  0999 V2000
   -5.0096   -0.5604    0.0000 O   0  0  0  0  0  0  0  0  0  0  0  0
   -3.5773   -0.1149    0.0000 C   0  0  0  0  0  0  0  0  0  0  0  0
   -3.2469    1.3482    0.0000 C   0  0  0  0  0  0  0  0  0  0  0  0
   -1.8146    1.7937    0.0000 C   0  0  0  0  0  0  0  0  0  0  0  0
   -0.7126    0.7760    0.0000 C   0  0  0  0  0  0  0  0  0  0  0  0
   -1.0430   -0.6872    0.0000 C   0  0  0  0  0  0  0  0  0  0  0  0
   -2.4753   -1.1326    0.0000 C   0  0  0  0  0  0  0  0  0  0  0  0
    0.7197    1.2215    0.0000 C   0  0  0  0  0  0  0  0  0  0  0  0
    1.8217    0.2038    0.0000 C   0  0  0  0  0  0  0  0  0  0  0  0
    1.4913   -1.2594    0.0000 N   0  0  0  0  0  0  0  0  0  0  0  0
    2.5933   -2.2771    0.0000 C   0  0  0  0  0  0  0  0  0  0  0  0
    0.0590   -1.7049    0.0000 C   0  0  0  0  0  0  0  0  0  0  0  0
    3.2540    0.6493    0.0000 C   0  0  0  0  0  0  0  0  0  0  0  0
    3.5844    2.1124    0.0000 O   0  0  0  0  0  0  0  0  0  0  0  0
    4.3559   -0.3684    0.0000 O   0  0  0  0  0  0  0  0  0  0  0  0
  1  2  1  0
  2  3  1  0
  3  4  2  0
  4  5  1  0
  5  6  2  0
  6  7  1  0
  5  8  1  0
  9  8  1  1
  9 10  1  0
 10 11  1  0
 10 12  1  0
  9 13  1  0
 13 14  2  0
 13 15  1  0
  7  2  2  0
M  END
>  <rName>  (141) 
NMe2Tyr

>  <PQ_SYMBOL>  (141) 
NMe2Tyr

>  <FULL_NAME>  (141) 
methyl N-Methyl-Tyrosine

>  <IUPAC_CONDENSED>  (141) 
N(Me2)Tyr

>  <IUPAC>  (141) 
(2S)-2-(dimethylamino)-3-(4-hydroxyphenyl)propanoic acid

>  <TYPE>  (141) 
N-term cap

>  <CLASS>  (141) 
n_cap

>  <ANALOG>  (141) 
X

>  <MOL_WT>  (141) 
209.24499999999998

>  <LOGP>  (141) 
0.9495

>  <TPSA>  (141) 
60.769999999999996

>  <POPULARITY>  (141) 
11.8

>  <PROTECTED>  (141) 
TRUE

>  <SMILES>  (141) 
Oc1ccc(cc1)C[C@H](N(C)C)C(=O)O

>  <INCHIKEY>  (141) 
WJJGAKCAAJOICV-JTQLQIEISA-N

$$$$
Nnaphth1yl-G
     RDKit          2D

 15 16  0  0  0  0  0  0  0  0999 V2000
   -1.4643    0.2929    0.0000 N   0  0  0  0  0  0  0  0  0  0  0  0
   -0.1877   -0.4947    0.0000 C   0  0  0  0  0  0  0  0  0  0  0  0
   -0.2316   -1.9941    0.0000 C   0  0  0  0  0  0  0  0  0  0  0  0
    1.0450   -2.7817    0.0000 C   0  0  0  0  0  0  0  0  0  0  0  0
    2.3654   -2.0700    0.0000 C   0  0  0  0  0  0  0  0  0  0  0  0
    2.4092   -0.5706    0.0000 C   0  0  0  0  0  0  0  0  0  0  0  0
    3.7296    0.1411    0.0000 C   0  0  0  0  0  0  0  0  0  0  0  0
    3.7735    1.6404    0.0000 C   0  0  0  0  0  0  0  0  0  0  0  0
    2.4969    2.4281    0.0000 C   0  0  0  0  0  0  0  0  0  0  0  0
    1.1765    1.7164    0.0000 C   0  0  0  0  0  0  0  0  0  0  0  0
    1.1327    0.2170    0.0000 C   0  0  0  0  0  0  0  0  0  0  0  0
   -2.7847   -0.4188    0.0000 C   0  0  0  0  0  0  0  0  0  0  0  0
   -4.0613    0.3688    0.0000 C   0  0  0  0  0  0  0  0  0  0  0  0
   -4.0174    1.8682    0.0000 O   0  0  0  0  0  0  0  0  0  0  0  0
   -5.3817   -0.3429    0.0000 O   0  0  0  0  0  0  0  0  0  0  0  0
  1  2  1  0
  2  3  2  0
  3  4  1  0
  4  5  2  0
  5  6  1  0
  6  7  2  0
  7  8  1  0
  8  9  2  0
  9 10  1  0
 10 11  2  0
  1 12  1  0
 12 13  1  0
 13 14  2  0
 13 15  1  0
 11  2  1  0
 11  6  1  0
M  END
>  <rName>  (142) 
Nnaphth1yl-G

>  <PQ_SYMBOL>  (142) 
Nnaphth1yl-G

>  <FULL_NAME>  (142) 
2-(naphthalen-1-ylamino)acetic acid

>  <IUPAC_CONDENSED>  (142) 
N-naphth-1-yl-Gly

>  <IUPAC>  (142) 
2-((naphthalen-1-yl)amino)acetic acid

>  <TYPE>  (142) 
N-term cap

>  <CLASS>  (142) 
n_cap

>  <ANALOG>  (142) 
X

>  <MOL_WT>  (142) 
201.22499999999997

>  <LOGP>  (142) 
2.3362999999999996

>  <TPSA>  (142) 
49.33

>  <POPULARITY>  (142) 
10.3

>  <PROTECTED>  (142) 
TRUE

>  <SMILES>  (142) 
N(c1(cccc2(ccccc12)))CC(=O)O

>  <INCHIKEY>  (142) 
SIVZFLKJXSKCGT-UHFFFAOYSA-N

$$$$
morpholinocarbonyl-Leu
     RDKit          2D

 17 17  0  0  0  0  0  0  0  0999 V2000
   -5.2768   -0.7465    0.0000 O   0  0  0  0  0  0  0  0  0  0  0  0
   -4.8794    0.6999    0.0000 C   0  0  0  0  0  0  0  0  0  0  0  0
   -3.4281    1.0790    0.0000 C   0  0  0  0  0  0  0  0  0  0  0  0
   -2.3741    0.0117    0.0000 N   0  0  0  0  0  0  0  0  0  0  0  0
   -2.7715   -1.4347    0.0000 C   0  0  0  0  0  0  0  0  0  0  0  0
   -4.2228   -1.8138    0.0000 C   0  0  0  0  0  0  0  0  0  0  0  0
   -0.9228    0.3908    0.0000 C   0  0  0  0  0  0  0  0  0  0  0  0
   -0.5255    1.8372    0.0000 O   0  0  0  0  0  0  0  0  0  0  0  0
    0.1311   -0.6766    0.0000 N   0  0  0  0  0  0  0  0  0  0  0  0
    1.5824   -0.2975    0.0000 C   0  0  0  0  0  0  0  0  0  0  0  0
    2.6364   -1.3648    0.0000 C   0  0  0  0  0  0  0  0  0  0  0  0
    4.0877   -0.9857    0.0000 C   0  0  0  0  0  0  0  0  0  0  0  0
    5.1416   -2.0530    0.0000 C   0  0  0  0  0  0  0  0  0  0  0  0
    4.4850    0.4607    0.0000 C   0  0  0  0  0  0  0  0  0  0  0  0
    1.9798    1.1490    0.0000 C   0  0  0  0  0  0  0  0  0  0  0  0
    0.9258    2.2163    0.0000 O   0  0  0  0  0  0  0  0  0  0  0  0
    3.4311    1.5280    0.0000 O   0  0  0  0  0  0  0  0  0  0  0  0
  1  2  1  0
  2  3  1  0
  3  4  1  0
  4  5  1  0
  5  6  1  0
  4  7  1  0
  7  8  2  0
  7  9  1  0
  9 10  1  0
 10 11  1  6
 11 12  1  0
 12 13  1  0
 12 14  1  0
 10 15  1  0
 15 16  2  0
 15 17  1  0
  6  1  1  0
M  END
>  <rName>  (143) 
morpholinocarbonyl-Leu

>  <PQ_SYMBOL>  (143) 
morpholinocarbonyl-Leu

>  <FULL_NAME>  (143) 
(2S)-4-methyl-2-(morpholine-4-carbonylamino)pentanoic acid

>  <IUPAC_CONDENSED>  (143) 
morpholinocarbonyl-Leu

>  <IUPAC>  (143) 
(2S)-4-methyl-2-(morpholin-4-ylcarbonylamino)pentanoic acid

>  <TYPE>  (143) 
N-term cap

>  <CLASS>  (143) 
n_cap

>  <ANALOG>  (143) 
X

>  <MOL_WT>  (143) 
244.29099999999997

>  <LOGP>  (143) 
0.5274999999999996

>  <TPSA>  (143) 
78.87

>  <POPULARITY>  (143) 
7.9

>  <PROTECTED>  (143) 
TRUE

>  <SMILES>  (143) 
O1CCN(CC1)C(=O)N[C@@H](CC(C)C)C(=O)O

>  <INCHIKEY>  (143) 
NZMAANDPAHYSGM-VIFPVBQESA-N

$$$$
NPh3OMe-G
     RDKit          2D

 13 13  0  0  0  0  0  0  0  0999 V2000
   -1.2373   -0.4896    0.0000 N   0  0  0  0  0  0  0  0  0  0  0  0
    0.1121    0.1655    0.0000 C   0  0  0  0  0  0  0  0  0  0  0  0
    0.2195    1.6616    0.0000 C   0  0  0  0  0  0  0  0  0  0  0  0
    1.5689    2.3167    0.0000 C   0  0  0  0  0  0  0  0  0  0  0  0
    2.8109    1.4756    0.0000 C   0  0  0  0  0  0  0  0  0  0  0  0
    2.7035   -0.0206    0.0000 C   0  0  0  0  0  0  0  0  0  0  0  0
    3.9455   -0.8617    0.0000 O   0  0  0  0  0  0  0  0  0  0  0  0
    3.8380   -2.3578    0.0000 C   0  0  0  0  0  0  0  0  0  0  0  0
    1.3541   -0.6756    0.0000 C   0  0  0  0  0  0  0  0  0  0  0  0
   -2.4793    0.3515    0.0000 C   0  0  0  0  0  0  0  0  0  0  0  0
   -3.8288   -0.3035    0.0000 C   0  0  0  0  0  0  0  0  0  0  0  0
   -3.9362   -1.7997    0.0000 O   0  0  0  0  0  0  0  0  0  0  0  0
   -5.0707    0.5376    0.0000 O   0  0  0  0  0  0  0  0  0  0  0  0
  1  2  1  0
  2  3  1  0
  3  4  2  0
  4  5  1  0
  5  6  2  0
  6  7  1  0
  7  8  1  0
  6  9  1  0
  1 10  1  0
 10 11  1  0
 11 12  2  0
 11 13  1  0
  9  2  2  0
M  END
>  <rName>  (144) 
NPh3OMe-G

>  <PQ_SYMBOL>  (144) 
NPh3OMe-G

>  <FULL_NAME>  (144) 
2-(3-methoxyanilino)acetic acid

>  <IUPAC_CONDENSED>  (144) 
N-Ph(3-OMe)-Gly

>  <IUPAC>  (144) 
2-((3-methoxyphenyl)amino)acetic acid

>  <TYPE>  (144) 
N-term cap

>  <CLASS>  (144) 
n_cap

>  <ANALOG>  (144) 
X

>  <MOL_WT>  (144) 
181.19099999999997

>  <LOGP>  (144) 
1.1916999999999998

>  <TPSA>  (144) 
58.56

>  <POPULARITY>  (144) 
12

>  <PROTECTED>  (144) 
TRUE

>  <SMILES>  (144) 
N(c1(cccc(OC)c1))CC(=O)O

>  <INCHIKEY>  (144) 
SKFZRKRPFROPDR-UHFFFAOYSA-N

$$$$
AziCO2Et-OEt
     RDKit          2D

 13 13  0  0  0  0  0  0  0  0999 V2000
    0.3026   -2.2949    0.0000 N   0  0  0  0  0  0  0  0  0  0  0  0
    0.6920   -0.8463    0.0000 C   0  0  0  0  0  0  0  0  0  0  0  0
   -0.7572   -1.2334    0.0000 C   0  0  0  0  0  0  0  0  0  0  0  0
   -2.2057   -0.8440    0.0000 C   0  0  0  0  0  0  0  0  0  0  0  0
   -3.2673   -1.9038    0.0000 O   0  0  0  0  0  0  0  0  0  0  0  0
   -2.5928    0.6052    0.0000 O   0  0  0  0  0  0  0  0  0  0  0  0
   -4.0414    0.9946    0.0000 C   0  0  0  0  0  0  0  0  0  0  0  0
   -4.4284    2.4439    0.0000 C   0  0  0  0  0  0  0  0  0  0  0  0
    1.7536    0.2135    0.0000 C   0  0  0  0  0  0  0  0  0  0  0  0
    1.3665    1.6627    0.0000 O   0  0  0  0  0  0  0  0  0  0  0  0
    3.2021   -0.1759    0.0000 O   0  0  0  0  0  0  0  0  0  0  0  0
    4.2637    0.8839    0.0000 C   0  0  0  0  0  0  0  0  0  0  0  0
    5.7122    0.4945    0.0000 C   0  0  0  0  0  0  0  0  0  0  0  0
  1  2  1  0
  2  3  1  0
  3  4  1  6
  4  5  2  0
  4  6  1  0
  6  7  1  0
  7  8  1  0
  2  9  1  1
  9 10  2  0
  9 11  1  0
 11 12  1  0
 12 13  1  0
  3  1  1  0
M  END
>  <rName>  (145) 
AziCO2Et-OEt

>  <PQ_SYMBOL>  (145) 
AziCO2Et-OEt

>  <FULL_NAME>  (145) 
diethyl (2S,3S)-aziridine-2,3-dicarboxylate

>  <IUPAC_CONDENSED>  (145) 
Azi(CO2Et)-OEt

>  <IUPAC>  (145) 
diethyl (2S,3S)-aziridine-2,3-dicarboxylate

>  <TYPE>  (145) 
C-term cap

>  <CLASS>  (145) 
c_cap

>  <ANALOG>  (145) 
X

>  <MOL_WT>  (145) 
187.19499999999996

>  <LOGP>  (145) 
-0.5470000000000002

>  <TPSA>  (145) 
74.54

>  <POPULARITY>  (145) 
10.7

>  <PROTECTED>  (145) 
TRUE

>  <SMILES>  (145) 
N1[C@@H]([C@H]1C(=O)OCC)C(=O)OCC

>  <INCHIKEY>  (145) 
ZDCRASVHGJDHRS-WDSKDSINSA-N

$$$$
quinazolinedione-Phe
     RDKit          2D

 23 25  0  0  0  0  0  0  0  0999 V2000
    5.9733    0.8048    0.0000 C   0  0  0  0  0  0  0  0  0  0  0  0
    5.2141   -0.4888    0.0000 C   0  0  0  0  0  0  0  0  0  0  0  0
    3.7141   -0.4782    0.0000 C   0  0  0  0  0  0  0  0  0  0  0  0
    2.9549   -1.7719    0.0000 N   0  0  0  0  0  0  0  0  0  0  0  0
    1.4549   -1.7612    0.0000 C   0  0  0  0  0  0  0  0  0  0  0  0
    0.6957   -3.0549    0.0000 O   0  0  0  0  0  0  0  0  0  0  0  0
    0.7142   -0.4569    0.0000 N   0  0  0  0  0  0  0  0  0  0  0  0
    1.4734    0.8368    0.0000 C   0  0  0  0  0  0  0  0  0  0  0  0
    0.7326    2.1411    0.0000 O   0  0  0  0  0  0  0  0  0  0  0  0
    2.9733    0.8261    0.0000 C   0  0  0  0  0  0  0  0  0  0  0  0
    3.7325    2.1198    0.0000 C   0  0  0  0  0  0  0  0  0  0  0  0
    5.2325    2.1092    0.0000 C   0  0  0  0  0  0  0  0  0  0  0  0
   -0.7858   -0.4463    0.0000 C   0  0  0  0  0  0  0  0  0  0  0  0
   -1.5266    0.8581    0.0000 C   0  0  0  0  0  0  0  0  0  0  0  0
   -3.0265    0.8687    0.0000 C   0  0  0  0  0  0  0  0  0  0  0  0
   -3.7673    2.1730    0.0000 C   0  0  0  0  0  0  0  0  0  0  0  0
   -5.2672    2.1837    0.0000 C   0  0  0  0  0  0  0  0  0  0  0  0
   -6.0264    0.8900    0.0000 C   0  0  0  0  0  0  0  0  0  0  0  0
   -5.2857   -0.4143    0.0000 C   0  0  0  0  0  0  0  0  0  0  0  0
   -3.7857   -0.4250    0.0000 C   0  0  0  0  0  0  0  0  0  0  0  0
   -1.5450   -1.7400    0.0000 C   0  0  0  0  0  0  0  0  0  0  0  0
   -0.8042   -3.0443    0.0000 O   0  0  0  0  0  0  0  0  0  0  0  0
   -3.0450   -1.7293    0.0000 O   0  0  0  0  0  0  0  0  0  0  0  0
  1  2  1  0
  2  3  2  0
  3  4  1  0
  4  5  1  0
  5  6  2  0
  5  7  1  0
  7  8  1  0
  8  9  2  0
  8 10  1  0
 10 11  2  0
 11 12  1  0
  7 13  1  0
 13 14  1  6
 14 15  1  0
 15 16  2  0
 16 17  1  0
 17 18  2  0
 18 19  1  0
 19 20  2  0
 13 21  1  0
 21 22  2  0
 21 23  1  0
 20 15  1  0
 10  3  1  0
 12  1  2  0
M  END
>  <rName>  (146) 
quinazolinedione-Phe

>  <PQ_SYMBOL>  (146) 
quinazolinedione-Phe

>  <FULL_NAME>  (146) 
(2S)-2-(2,4-dioxo-1H-quinazolin-3-yl)-3-phenylpropanoic acid

>  <IUPAC_CONDENSED>  (146) 
quinazolinedione-Phe

>  <IUPAC>  (146) 
(2S)-2-(3,5-dioxo-2,4-diazabicyclo[4.4.0]deca-1(6),7,9-trien-4-yl)-3-phenylpropanoic acid

>  <TYPE>  (146) 
N-term cap

>  <CLASS>  (146) 
n_cap

>  <ANALOG>  (146) 
X

>  <MOL_WT>  (146) 
310.309

>  <LOGP>  (146) 
1.5582

>  <TPSA>  (146) 
92.16000000000001

>  <POPULARITY>  (146) 
11.3

>  <PROTECTED>  (146) 
TRUE

>  <SMILES>  (146) 
c3cc2[nH]c(=O)n(c(=O)c2cc3)[C@@H](Cc1(ccccc1))C(=O)O

>  <INCHIKEY>  (146) 
JSHKCLVDTGIHEU-AWEZNQCLSA-N

$$$$
S-3-aminopiperidin-2-one
     RDKit          2D

  8  8  0  0  0  0  0  0  0  0999 V2000
    1.9486   -1.5000    0.0000 N   0  0  0  0  0  0  0  0  0  0  0  0
    0.6495   -0.7500    0.0000 C   0  0  0  0  0  0  0  0  0  0  0  0
   -0.6495   -1.5000    0.0000 C   0  0  0  0  0  0  0  0  0  0  0  0
   -1.9486   -0.7500    0.0000 C   0  0  0  0  0  0  0  0  0  0  0  0
   -1.9486    0.7500    0.0000 C   0  0  0  0  0  0  0  0  0  0  0  0
   -0.6495    1.5000    0.0000 N   0  0  0  0  0  0  0  0  0  0  0  0
    0.6495    0.7500    0.0000 C   0  0  0  0  0  0  0  0  0  0  0  0
    1.9486    1.5000    0.0000 O   0  0  0  0  0  0  0  0  0  0  0  0
  2  1  1  1
  2  3  1  0
  3  4  1  0
  4  5  1  0
  5  6  1  0
  6  7  1  0
  7  8  2  0
  7  2  1  0
M  END
>  <rName>  (147) 
S-3-aminopiperidin-2-one

>  <PQ_SYMBOL>  (147) 
S-3-aminopiperidin-2-one

>  <FULL_NAME>  (147) 
(3S)-3-aminopiperidin-2-one

>  <IUPAC_CONDENSED>  (147) 
S-3-aminopiperidin-2-one

>  <IUPAC>  (147) 
(3S)-3-aminopiperidin-2-one

>  <TYPE>  (147) 
C-term cap

>  <CLASS>  (147) 
c_cap

>  <ANALOG>  (147) 
X

>  <MOL_WT>  (147) 
114.148

>  <LOGP>  (147) 
-0.7763000000000002

>  <TPSA>  (147) 
55.12

>  <POPULARITY>  (147) 
13.2

>  <PROTECTED>  (147) 
TRUE

>  <SMILES>  (147) 
N[C@H]1CCCNC1=O

>  <INCHIKEY>  (147) 
YCCMTCQQDULIFE-BYPYZUCNSA-N

$$$$
Ala-al
     RDKit          2D

  5  4  0  0  0  0  0  0  0  0999 V2000
   -0.5196    1.5000    0.0000 N   0  0  0  0  0  0  0  0  0  0  0  0
   -0.5196    0.0000    0.0000 C   0  0  0  0  0  0  0  0  0  0  0  0
   -1.8187   -0.7500    0.0000 C   0  0  0  0  0  0  0  0  0  0  0  0
    0.7794   -0.7500    0.0000 C   0  0  0  0  0  0  0  0  0  0  0  0
    2.0785   -0.0000    0.0000 O   0  0  0  0  0  0  0  0  0  0  0  0
  1  2  1  0
  2  3  1  6
  2  4  1  0
  4  5  2  0
M  END
>  <rName>  (148) 
Ala-al

>  <PQ_SYMBOL>  (148) 
Ala-al

>  <FULL_NAME>  (148) 
(2S)-2-aminopropanal

>  <IUPAC_CONDENSED>  (148) 
Ala-al

>  <IUPAC>  (148) 
(2S)-2-aminopropanal

>  <TYPE>  (148) 
C-term cap

>  <CLASS>  (148) 
c_cap

>  <ANALOG>  (148) 
X

>  <MOL_WT>  (148) 
73.095

>  <LOGP>  (148) 
-0.46750000000000025

>  <TPSA>  (148) 
43.09

>  <POPULARITY>  (148) 
31.2

>  <PROTECTED>  (148) 
TRUE

>  <SMILES>  (148) 
N[C@@H](C)C=O

>  <INCHIKEY>  (148) 
QPMCUNAXNMSGTK-VKHMYHEASA-N

$$$$
Arg-OMe
     RDKit          2D

 13 12  0  0  0  0  0  0  0  0999 V2000
    1.9446   -1.9750    0.0000 N   0  0  0  0  0  0  0  0  0  0  0  0
    1.9101   -0.4754    0.0000 C   0  0  0  0  0  0  0  0  0  0  0  0
    3.1915    0.3044    0.0000 C   0  0  0  0  0  0  0  0  0  0  0  0
    3.1569    1.8040    0.0000 O   0  0  0  0  0  0  0  0  0  0  0  0
    4.5074   -0.4155    0.0000 O   0  0  0  0  0  0  0  0  0  0  0  0
    5.7889    0.3642    0.0000 C   0  0  0  0  0  0  0  0  0  0  0  0
    0.5941    0.2445    0.0000 C   0  0  0  0  0  0  0  0  0  0  0  0
   -0.6873   -0.5352    0.0000 C   0  0  0  0  0  0  0  0  0  0  0  0
   -2.0033    0.1847    0.0000 C   0  0  0  0  0  0  0  0  0  0  0  0
   -3.2847   -0.5951    0.0000 N   0  0  0  0  0  0  0  0  0  0  0  0
   -4.6007    0.1248    0.0000 C   0  0  0  0  0  0  0  0  0  0  0  0
   -5.8821   -0.6549    0.0000 N   0  0  0  0  0  0  0  0  0  0  0  0
   -4.6353    1.6244    0.0000 N   0  0  0  0  0  0  0  0  0  0  0  0
  2  1  1  1
  2  3  1  0
  3  4  2  0
  3  5  1  0
  5  6  1  0
  2  7  1  0
  7  8  1  0
  8  9  1  0
  9 10  1  0
 10 11  2  0
 11 12  1  0
 11 13  1  0
M  END
>  <rName>  (149) 
Arg-OMe

>  <PQ_SYMBOL>  (149) 
Arg-OMe

>  <FULL_NAME>  (149) 
L-Arginine methyl ester

>  <IUPAC_CONDENSED>  (149) 
Arg-OMe

>  <IUPAC>  (149) 
methyl (2S)-2-amino-5-((diaminomethylidene)amino)pentanoate

>  <TYPE>  (149) 
C-term cap

>  <CLASS>  (149) 
c_cap

>  <ANALOG>  (149) 
X

>  <MOL_WT>  (149) 
188.231

>  <LOGP>  (149) 
-1.459699999999998

>  <TPSA>  (149) 
116.72

>  <POPULARITY>  (149) 
12.6

>  <PROTECTED>  (149) 
TRUE

>  <SMILES>  (149) 
N[C@H](C(=O)OC)CCCN=C(N)N

>  <INCHIKEY>  (149) 
ZDLDXNCMJBOYJV-YFKPBYRVSA-N

$$$$
His-OMe
     RDKit          2D

 12 12  0  0  0  0  0  0  0  0999 V2000
   -0.5508    1.6424    0.0000 N   0  0  0  0  0  0  0  0  0  0  0  0
   -0.8757    0.1780    0.0000 C   0  0  0  0  0  0  0  0  0  0  0  0
   -2.3063   -0.2728    0.0000 C   0  0  0  0  0  0  0  0  0  0  0  0
   -2.6312   -1.7372    0.0000 O   0  0  0  0  0  0  0  0  0  0  0  0
   -3.4121    0.7407    0.0000 O   0  0  0  0  0  0  0  0  0  0  0  0
   -4.8427    0.2899    0.0000 C   0  0  0  0  0  0  0  0  0  0  0  0
    0.2301   -0.8355    0.0000 C   0  0  0  0  0  0  0  0  0  0  0  0
    1.6607   -0.3846    0.0000 C   0  0  0  0  0  0  0  0  0  0  0  0
    2.8664   -1.2770    0.0000 C   0  0  0  0  0  0  0  0  0  0  0  0
    4.0877   -0.4062    0.0000 N   0  0  0  0  0  0  0  0  0  0  0  0
    3.6368    1.0245    0.0000 C   0  0  0  0  0  0  0  0  0  0  0  0
    2.1369    1.0378    0.0000 N   0  0  0  0  0  0  0  0  0  0  0  0
  2  1  1  1
  2  3  1  0
  3  4  2  0
  3  5  1  0
  5  6  1  0
  2  7  1  0
  7  8  1  0
  8  9  2  0
  9 10  1  0
 10 11  1  0
 11 12  2  0
 12  8  1  0
M  END
>  <rName>  (150) 
His-OMe

>  <PQ_SYMBOL>  (150) 
His-OMe

>  <FULL_NAME>  (150) 
Histidine methyl ester

>  <IUPAC_CONDENSED>  (150) 
His-OMe

>  <IUPAC>  (150) 
methyl (2S)-2-amino-3-(1H-imidazol-4-yl)propanoate

>  <TYPE>  (150) 
C-term cap

>  <CLASS>  (150) 
c_cap

>  <ANALOG>  (150) 
X

>  <MOL_WT>  (150) 
169.184

>  <LOGP>  (150) 
-0.5475000000000003

>  <TPSA>  (150) 
81.00000000000001

>  <POPULARITY>  (150) 
18.9

>  <PROTECTED>  (150) 
TRUE

>  <SMILES>  (150) 
N[C@H](C(=O)OC)Cc1c[nH]cn1

>  <INCHIKEY>  (150) 
BXRMEWOQUXOLDH-LURJTMIESA-N

$$$$
Ala-OMe
     RDKit          2D

  7  6  0  0  0  0  0  0  0  0999 V2000
    1.5086   -1.6381    0.0000 N   0  0  0  0  0  0  0  0  0  0  0  0
    1.1803   -0.1745    0.0000 C   0  0  0  0  0  0  0  0  0  0  0  0
    2.2837    0.8417    0.0000 C   0  0  0  0  0  0  0  0  0  0  0  0
   -0.2514    0.2730    0.0000 C   0  0  0  0  0  0  0  0  0  0  0  0
   -0.5797    1.7367    0.0000 O   0  0  0  0  0  0  0  0  0  0  0  0
   -1.3548   -0.7431    0.0000 O   0  0  0  0  0  0  0  0  0  0  0  0
   -2.7865   -0.2956    0.0000 C   0  0  0  0  0  0  0  0  0  0  0  0
  1  2  1  0
  2  3  1  6
  2  4  1  0
  4  5  2  0
  4  6  1  0
  6  7  1  0
M  END
>  <rName>  (151) 
Ala-OMe

>  <PQ_SYMBOL>  (151) 
Ala-OMe

>  <FULL_NAME>  (151) 
L-Alanine methyl ester

>  <IUPAC_CONDENSED>  (151) 
Ala-OMe

>  <IUPAC>  (151) 
methyl (2S)-2-aminopropanoate

>  <TYPE>  (151) 
C-term cap

>  <CLASS>  (151) 
c_cap

>  <ANALOG>  (151) 
X

>  <MOL_WT>  (151) 
103.12099999999998

>  <LOGP>  (151) 
-0.4934000000000003

>  <TPSA>  (151) 
52.32000000000001

>  <POPULARITY>  (151) 
24.5

>  <PROTECTED>  (151) 
TRUE

>  <SMILES>  (151) 
N[C@@H](C)C(=O)OC

>  <INCHIKEY>  (151) 
DWKPPFQULDPWHX-VKHMYHEASA-N

$$$$
D-Pro-OBn
     RDKit          2D

 15 16  0  0  0  0  0  0  0  0999 V2000
   -4.2447   -0.6610    0.0000 N   0  0  0  0  0  0  0  0  0  0  0  0
   -2.8455   -0.1203    0.0000 C   0  0  0  0  0  0  0  0  0  0  0  0
   -2.9274    1.3775    0.0000 C   0  0  0  0  0  0  0  0  0  0  0  0
   -4.3772    1.7625    0.0000 C   0  0  0  0  0  0  0  0  0  0  0  0
   -5.1913    0.5026    0.0000 C   0  0  0  0  0  0  0  0  0  0  0  0
   -1.5857   -0.9344    0.0000 C   0  0  0  0  0  0  0  0  0  0  0  0
   -1.6608   -2.4325    0.0000 O   0  0  0  0  0  0  0  0  0  0  0  0
   -0.2507   -0.2504    0.0000 O   0  0  0  0  0  0  0  0  0  0  0  0
    1.0091   -1.0645    0.0000 C   0  0  0  0  0  0  0  0  0  0  0  0
    2.3441   -0.3806    0.0000 C   0  0  0  0  0  0  0  0  0  0  0  0
    3.6039   -1.1947    0.0000 C   0  0  0  0  0  0  0  0  0  0  0  0
    4.9389   -0.5107    0.0000 C   0  0  0  0  0  0  0  0  0  0  0  0
    5.0140    0.9874    0.0000 C   0  0  0  0  0  0  0  0  0  0  0  0
    3.7542    1.8015    0.0000 C   0  0  0  0  0  0  0  0  0  0  0  0
    2.4192    1.1176    0.0000 C   0  0  0  0  0  0  0  0  0  0  0  0
  1  2  1  0
  2  3  1  0
  3  4  1  0
  4  5  1  0
  2  6  1  6
  6  7  2  0
  6  8  1  0
  8  9  1  0
  9 10  1  0
 10 11  2  0
 11 12  1  0
 12 13  2  0
 13 14  1  0
 14 15  2  0
 15 10  1  0
  5  1  1  0
M  END
>  <rName>  (152) 
D-Pro-OBn

>  <PQ_SYMBOL>  (152) 
D-Pro-OBn

>  <FULL_NAME>  (152) 
D-Proline benzyl ester

>  <IUPAC_CONDENSED>  (152) 
D-Pro-OBn

>  <IUPAC>  (152) 
benzyl (2R)-pyrrolidine-2-carboxylate

>  <TYPE>  (152) 
C-term cap

>  <CLASS>  (152) 
c_cap

>  <ANALOG>  (152) 
X

>  <MOL_WT>  (152) 
205.257

>  <LOGP>  (152) 
1.4817999999999996

>  <TPSA>  (152) 
38.33

>  <POPULARITY>  (152) 
8.5

>  <PROTECTED>  (152) 
TRUE

>  <SMILES>  (152) 
N2[C@H](CCC2)C(=O)OCc1ccccc1

>  <INCHIKEY>  (152) 
VVCLBQFBKZQOAF-LLVKDONJSA-N

$$$$
D-Nva-OMe
     RDKit          2D

  9  8  0  0  0  0  0  0  0  0999 V2000
    0.2555   -1.9050    0.0000 N   0  0  0  0  0  0  0  0  0  0  0  0
    0.1683   -0.4076    0.0000 C   0  0  0  0  0  0  0  0  0  0  0  0
    1.4216    0.4167    0.0000 C   0  0  0  0  0  0  0  0  0  0  0  0
    2.7620   -0.2565    0.0000 C   0  0  0  0  0  0  0  0  0  0  0  0
    4.0152    0.5678    0.0000 C   0  0  0  0  0  0  0  0  0  0  0  0
   -1.1721    0.2656    0.0000 C   0  0  0  0  0  0  0  0  0  0  0  0
   -1.2593    1.7631    0.0000 O   0  0  0  0  0  0  0  0  0  0  0  0
   -2.4254   -0.5586    0.0000 O   0  0  0  0  0  0  0  0  0  0  0  0
   -3.7658    0.1146    0.0000 C   0  0  0  0  0  0  0  0  0  0  0  0
  2  1  1  1
  2  3  1  0
  3  4  1  0
  4  5  1  0
  2  6  1  0
  6  7  2  0
  6  8  1  0
  8  9  1  0
M  END
>  <rName>  (153) 
D-Nva-OMe

>  <PQ_SYMBOL>  (153) 
D-Nva-OMe

>  <FULL_NAME>  (153) 
D-norvaline methyl ester

>  <IUPAC_CONDENSED>  (153) 
D-Nva-OMe

>  <IUPAC>  (153) 
methyl (2R)-2-aminopentanoate

>  <TYPE>  (153) 
C-term cap

>  <CLASS>  (153) 
c_cap

>  <ANALOG>  (153) 
X

>  <MOL_WT>  (153) 
131.17499999999998

>  <LOGP>  (153) 
0.2867999999999997

>  <TPSA>  (153) 
52.32000000000001

>  <POPULARITY>  (153) 
13

>  <PROTECTED>  (153) 
TRUE

>  <SMILES>  (153) 
N[C@H](CCC)C(=O)OC

>  <INCHIKEY>  (153) 
VXGRMCZTYDXKQW-RXMQYKEDSA-N

$$$$
aGuanidino-Ala
     RDKit          2D

  9  8  0  0  0  0  0  0  0  0999 V2000
    3.1492    0.4401    0.0000 N   0  0  0  0  0  0  0  0  0  0  0  0
    1.6886    0.0985    0.0000 C   0  0  0  0  0  0  0  0  0  0  0  0
    1.2542   -1.3372    0.0000 N   0  0  0  0  0  0  0  0  0  0  0  0
    0.6625    1.1926    0.0000 N   0  0  0  0  0  0  0  0  0  0  0  0
   -0.7981    0.8510    0.0000 C   0  0  0  0  0  0  0  0  0  0  0  0
   -1.8243    1.9450    0.0000 C   0  0  0  0  0  0  0  0  0  0  0  0
   -1.2325   -0.5848    0.0000 C   0  0  0  0  0  0  0  0  0  0  0  0
   -2.6931   -0.9264    0.0000 O   0  0  0  0  0  0  0  0  0  0  0  0
   -0.2064   -1.6788    0.0000 O   0  0  0  0  0  0  0  0  0  0  0  0
  1  2  1  0
  2  3  1  0
  2  4  2  0
  4  5  1  0
  5  6  1  6
  5  7  1  0
  7  8  2  0
  7  9  1  0
M  END
>  <rName>  (154) 
aGuanidino-Ala

>  <PQ_SYMBOL>  (154) 
aGuanidino-Ala

>  <FULL_NAME>  (154) 
(2S)-2-(diaminomethylideneamino)propanoic acid

>  <IUPAC_CONDENSED>  (154) 
aGuanidino-Ala

>  <IUPAC>  (154) 
(2S)-2-((diaminomethylidene)amino)propanoic acid

>  <TYPE>  (154) 
N-term cap

>  <CLASS>  (154) 
n_cap

>  <ANALOG>  (154) 
X

>  <MOL_WT>  (154) 
131.135

>  <LOGP>  (154) 
-1.2670999999999997

>  <TPSA>  (154) 
101.7

>  <POPULARITY>  (154) 
9

>  <PROTECTED>  (154) 
TRUE

>  <SMILES>  (154) 
NC(N)=N[C@@H](C)C(=O)O

>  <INCHIKEY>  (154) 
DVNFLGLGNLXITH-REOHCLBHSA-N

$$$$
HOCOCH2-bAla-ol
     RDKit          2D

  9  8  0  0  0  0  0  0  0  0999 V2000
    0.2960   -0.1534    0.0000 N   0  0  0  0  0  0  0  0  0  0  0  0
   -1.0358    0.5368    0.0000 C   0  0  0  0  0  0  0  0  0  0  0  0
   -2.2994   -0.2714    0.0000 C   0  0  0  0  0  0  0  0  0  0  0  0
   -3.6312    0.4188    0.0000 C   0  0  0  0  0  0  0  0  0  0  0  0
   -4.8948   -0.3895    0.0000 O   0  0  0  0  0  0  0  0  0  0  0  0
    1.5596    0.6549    0.0000 C   0  0  0  0  0  0  0  0  0  0  0  0
    2.8913   -0.0353    0.0000 C   0  0  0  0  0  0  0  0  0  0  0  0
    2.9595   -1.5338    0.0000 O   0  0  0  0  0  0  0  0  0  0  0  0
    4.1550    0.7729    0.0000 O   0  0  0  0  0  0  0  0  0  0  0  0
  1  2  1  0
  2  3  1  0
  3  4  1  0
  4  5  1  0
  1  6  1  0
  6  7  1  0
  7  8  2  0
  7  9  1  0
M  END
>  <rName>  (155) 
HOCOCH2-bAla-ol

>  <PQ_SYMBOL>  (155) 
HOCOCH2-bAla-ol

>  <FULL_NAME>  (155) 
2-(3-hydroxypropylamino)acetic acid

>  <IUPAC_CONDENSED>  (155) 
HOCOCH2-bAla-ol

>  <IUPAC>  (155) 
2-((3-hydroxypropyl)amino)acetic acid

>  <TYPE>  (155) 
N-term cap

>  <CLASS>  (155) 
n_cap

>  <ANALOG>  (155) 
X

>  <MOL_WT>  (155) 
133.147

>  <LOGP>  (155) 
-0.9570000000000003

>  <TPSA>  (155) 
69.56

>  <POPULARITY>  (155) 
17.7

>  <PROTECTED>  (155) 
TRUE

>  <SMILES>  (155) 
N(CCCO)CC(=O)O

>  <INCHIKEY>  (155) 
QIVWFDDLWNUYST-UHFFFAOYSA-N

$$$$
hPhe-OBn
     RDKit          2D

 20 21  0  0  0  0  0  0  0  0999 V2000
    0.3179   -1.9587    0.0000 N   0  0  0  0  0  0  0  0  0  0  0  0
    0.5755   -0.4809    0.0000 C   0  0  0  0  0  0  0  0  0  0  0  0
    1.9840    0.0349    0.0000 C   0  0  0  0  0  0  0  0  0  0  0  0
    3.1350   -0.9270    0.0000 C   0  0  0  0  0  0  0  0  0  0  0  0
    4.5435   -0.4112    0.0000 C   0  0  0  0  0  0  0  0  0  0  0  0
    5.6945   -1.3731    0.0000 C   0  0  0  0  0  0  0  0  0  0  0  0
    7.1030   -0.8573    0.0000 C   0  0  0  0  0  0  0  0  0  0  0  0
    7.3605    0.6205    0.0000 C   0  0  0  0  0  0  0  0  0  0  0  0
    6.2096    1.5824    0.0000 C   0  0  0  0  0  0  0  0  0  0  0  0
    4.8010    1.0665    0.0000 C   0  0  0  0  0  0  0  0  0  0  0  0
   -0.5755    0.4809    0.0000 C   0  0  0  0  0  0  0  0  0  0  0  0
   -0.3179    1.9587    0.0000 O   0  0  0  0  0  0  0  0  0  0  0  0
   -1.9840   -0.0349    0.0000 O   0  0  0  0  0  0  0  0  0  0  0  0
   -3.1350    0.9270    0.0000 C   0  0  0  0  0  0  0  0  0  0  0  0
   -4.5435    0.4112    0.0000 C   0  0  0  0  0  0  0  0  0  0  0  0
   -5.6945    1.3731    0.0000 C   0  0  0  0  0  0  0  0  0  0  0  0
   -7.1030    0.8573    0.0000 C   0  0  0  0  0  0  0  0  0  0  0  0
   -7.3605   -0.6205    0.0000 C   0  0  0  0  0  0  0  0  0  0  0  0
   -6.2096   -1.5824    0.0000 C   0  0  0  0  0  0  0  0  0  0  0  0
   -4.8010   -1.0665    0.0000 C   0  0  0  0  0  0  0  0  0  0  0  0
  2  1  1  6
  2  3  1  0
  3  4  1  0
  4  5  1  0
  5  6  2  0
  6  7  1  0
  7  8  2  0
  8  9  1  0
  9 10  2  0
  2 11  1  0
 11 12  2  0
 11 13  1  0
 13 14  1  0
 14 15  1  0
 15 16  2  0
 16 17  1  0
 17 18  2  0
 18 19  1  0
 19 20  2  0
 20 15  1  0
 10  5  1  0
M  END
>  <rName>  (156) 
hPhe-OBn

>  <PQ_SYMBOL>  (156) 
hPhe-OBn

>  <FULL_NAME>  (156) 
Homophenylalanine benzyl ester

>  <IUPAC_CONDENSED>  (156) 
hPhe-OBn

>  <IUPAC>  (156) 
benzyl (2S)-2-amino-4-phenylbutanoate

>  <TYPE>  (156) 
C-term cap

>  <CLASS>  (156) 
c_cap

>  <ANALOG>  (156) 
X

>  <MOL_WT>  (156) 
269.34399999999994

>  <LOGP>  (156) 
2.6899000000000006

>  <TPSA>  (156) 
52.32000000000001

>  <POPULARITY>  (156) 
7.3

>  <PROTECTED>  (156) 
TRUE

>  <SMILES>  (156) 
N[C@@H](CCc2(ccccc2))C(=O)OCc1ccccc1

>  <INCHIKEY>  (156) 
VYEIIPLQOBKTAZ-INIZCTEOSA-N

$$$$
Gly-Me
     RDKit          2D

  5  4  0  0  0  0  0  0  0  0999 V2000
    2.0785   -0.0000    0.0000 N   0  0  0  0  0  0  0  0  0  0  0  0
    0.7794   -0.7500    0.0000 C   0  0  0  0  0  0  0  0  0  0  0  0
   -0.5196    0.0000    0.0000 C   0  0  0  0  0  0  0  0  0  0  0  0
   -1.8187   -0.7500    0.0000 C   0  0  0  0  0  0  0  0  0  0  0  0
   -0.5196    1.5000    0.0000 O   0  0  0  0  0  0  0  0  0  0  0  0
  1  2  1  0
  2  3  1  0
  3  4  1  0
  3  5  2  0
M  END
>  <rName>  (157) 
Gly-Me

>  <PQ_SYMBOL>  (157) 
Gly-Me

>  <FULL_NAME>  (157) 
Glycine methyl

>  <IUPAC_CONDENSED>  (157) 
Gly-Me

>  <IUPAC>  (157) 
1-aminopropan-2-one

>  <TYPE>  (157) 
C-term cap

>  <CLASS>  (157) 
c_cap

>  <ANALOG>  (157) 
X

>  <MOL_WT>  (157) 
73.09499999999998

>  <LOGP>  (157) 
-0.4659000000000002

>  <TPSA>  (157) 
43.09

>  <POPULARITY>  (157) 
19.9

>  <PROTECTED>  (157) 
TRUE

>  <SMILES>  (157) 
NCC(C)=O

>  <INCHIKEY>  (157) 
BCDGQXUMWHRQCB-UHFFFAOYSA-N

$$$$
NMe2Leu
     RDKit          2D

 11 10  0  0  0  0  0  0  0  0999 V2000
   -3.2824    1.4145    0.0000 C   0  0  0  0  0  0  0  0  0  0  0  0
   -2.0795    0.5184    0.0000 C   0  0  0  0  0  0  0  0  0  0  0  0
   -2.2541   -0.9714    0.0000 C   0  0  0  0  0  0  0  0  0  0  0  0
   -0.7020    1.1120    0.0000 C   0  0  0  0  0  0  0  0  0  0  0  0
    0.5009    0.2159    0.0000 C   0  0  0  0  0  0  0  0  0  0  0  0
    0.3263   -1.2739    0.0000 N   0  0  0  0  0  0  0  0  0  0  0  0
    1.5291   -2.1701    0.0000 C   0  0  0  0  0  0  0  0  0  0  0  0
   -1.0513   -1.8676    0.0000 C   0  0  0  0  0  0  0  0  0  0  0  0
    1.8784    0.8095    0.0000 C   0  0  0  0  0  0  0  0  0  0  0  0
    2.0531    2.2993    0.0000 O   0  0  0  0  0  0  0  0  0  0  0  0
    3.0813   -0.0866    0.0000 O   0  0  0  0  0  0  0  0  0  0  0  0
  1  2  1  0
  2  3  1  0
  2  4  1  0
  5  4  1  1
  5  6  1  0
  6  7  1  0
  6  8  1  0
  5  9  1  0
  9 10  2  0
  9 11  1  0
M  END
>  <rName>  (158) 
NMe2Leu

>  <PQ_SYMBOL>  (158) 
NMe2Leu

>  <FULL_NAME>  (158) 
methyl N-Methyl-Leucine

>  <IUPAC_CONDENSED>  (158) 
N(Me2)Leu

>  <IUPAC>  (158) 
(2S)-2-(dimethylamino)-4-methylpentanoic acid

>  <TYPE>  (158) 
N-term cap

>  <CLASS>  (158) 
n_cap

>  <ANALOG>  (158) 
X

>  <MOL_WT>  (158) 
159.22899999999998

>  <LOGP>  (158) 
1.0473

>  <TPSA>  (158) 
40.540000000000006

>  <POPULARITY>  (158) 
19.3

>  <PROTECTED>  (158) 
TRUE

>  <SMILES>  (158) 
CC(C)C[C@H](N(C)C)C(=O)O

>  <INCHIKEY>  (158) 
FZLYRJBAUQHHIH-ZETCQYMHSA-N

$$$$
Val-OMe
     RDKit          2D

  9  8  0  0  0  0  0  0  0  0999 V2000
   -0.4922    2.0701    0.0000 N   0  0  0  0  0  0  0  0  0  0  0  0
   -0.4495    0.5707    0.0000 C   0  0  0  0  0  0  0  0  0  0  0  0
   -1.7266   -0.2160    0.0000 C   0  0  0  0  0  0  0  0  0  0  0  0
   -3.0465    0.4967    0.0000 C   0  0  0  0  0  0  0  0  0  0  0  0
   -1.6838   -1.7154    0.0000 C   0  0  0  0  0  0  0  0  0  0  0  0
    0.8704   -0.1419    0.0000 C   0  0  0  0  0  0  0  0  0  0  0  0
    0.9132   -1.6413    0.0000 O   0  0  0  0  0  0  0  0  0  0  0  0
    2.1475    0.6448    0.0000 O   0  0  0  0  0  0  0  0  0  0  0  0
    3.4674   -0.0678    0.0000 C   0  0  0  0  0  0  0  0  0  0  0  0
  2  1  1  6
  2  3  1  0
  3  4  1  0
  3  5  1  0
  2  6  1  0
  6  7  2  0
  6  8  1  0
  8  9  1  0
M  END
>  <rName>  (159) 
Val-OMe

>  <PQ_SYMBOL>  (159) 
Val-OMe

>  <FULL_NAME>  (159) 
L-Valine methyl ester

>  <IUPAC_CONDENSED>  (159) 
Val-OMe

>  <IUPAC>  (159) 
methyl (2S)-2-amino-3-methylbutanoate

>  <TYPE>  (159) 
C-term cap

>  <CLASS>  (159) 
c_cap

>  <ANALOG>  (159) 
X

>  <MOL_WT>  (159) 
131.17499999999998

>  <LOGP>  (159) 
0.14269999999999983

>  <TPSA>  (159) 
52.32000000000001

>  <POPULARITY>  (159) 
20.8

>  <PROTECTED>  (159) 
TRUE

>  <SMILES>  (159) 
N[C@@H](C(C)C)C(=O)OC

>  <INCHIKEY>  (159) 
CEMZBWPSKYISTN-YFKPBYRVSA-N

$$$$
D-AziCO2Et-OEt
     RDKit          2D

 13 13  0  0  0  0  0  0  0  0999 V2000
    0.3026   -2.2949    0.0000 N   0  0  0  0  0  0  0  0  0  0  0  0
    0.6920   -0.8463    0.0000 C   0  0  0  0  0  0  0  0  0  0  0  0
   -0.7572   -1.2334    0.0000 C   0  0  0  0  0  0  0  0  0  0  0  0
   -2.2057   -0.8440    0.0000 C   0  0  0  0  0  0  0  0  0  0  0  0
   -3.2673   -1.9038    0.0000 O   0  0  0  0  0  0  0  0  0  0  0  0
   -2.5928    0.6052    0.0000 O   0  0  0  0  0  0  0  0  0  0  0  0
   -4.0414    0.9946    0.0000 C   0  0  0  0  0  0  0  0  0  0  0  0
   -4.4284    2.4439    0.0000 C   0  0  0  0  0  0  0  0  0  0  0  0
    1.7536    0.2135    0.0000 C   0  0  0  0  0  0  0  0  0  0  0  0
    1.3665    1.6627    0.0000 O   0  0  0  0  0  0  0  0  0  0  0  0
    3.2021   -0.1759    0.0000 O   0  0  0  0  0  0  0  0  0  0  0  0
    4.2637    0.8839    0.0000 C   0  0  0  0  0  0  0  0  0  0  0  0
    5.7122    0.4945    0.0000 C   0  0  0  0  0  0  0  0  0  0  0  0
  1  2  1  0
  2  3  1  0
  3  4  1  1
  4  5  2  0
  4  6  1  0
  6  7  1  0
  7  8  1  0
  2  9  1  6
  9 10  2  0
  9 11  1  0
 11 12  1  0
 12 13  1  0
  3  1  1  0
M  END
>  <rName>  (160) 
D-AziCO2Et-OEt

>  <PQ_SYMBOL>  (160) 
D-AziCO2Et-OEt

>  <FULL_NAME>  (160) 
diethyl (2R,3R)-aziridine-2,3-dicarboxylate

>  <IUPAC_CONDENSED>  (160) 
D-Azi(CO2Et)-OEt

>  <IUPAC>  (160) 
diethyl (2R,3R)-aziridine-2,3-dicarboxylate

>  <TYPE>  (160) 
C-term cap

>  <CLASS>  (160) 
c_cap

>  <ANALOG>  (160) 
X

>  <MOL_WT>  (160) 
187.19499999999996

>  <LOGP>  (160) 
-0.5470000000000002

>  <TPSA>  (160) 
74.54

>  <POPULARITY>  (160) 
9

>  <PROTECTED>  (160) 
TRUE

>  <SMILES>  (160) 
N1[C@H]([C@@H]1C(=O)OCC)C(=O)OCC

>  <INCHIKEY>  (160) 
ZDCRASVHGJDHRS-PHDIDXHHSA-N

$$$$
Dan-Pro
     RDKit          2D

 24 26  0  0  0  0  0  0  0  0999 V2000
    6.4366    0.6083    0.0000 C   0  0  0  0  0  0  0  0  0  0  0  0
    5.1851   -0.2186    0.0000 N   0  0  0  0  0  0  0  0  0  0  0  0
    5.2756   -1.7159    0.0000 C   0  0  0  0  0  0  0  0  0  0  0  0
    3.8432    0.4517    0.0000 C   0  0  0  0  0  0  0  0  0  0  0  0
    2.5918   -0.3753    0.0000 C   0  0  0  0  0  0  0  0  0  0  0  0
    1.2499    0.2950    0.0000 C   0  0  0  0  0  0  0  0  0  0  0  0
    1.1594    1.7923    0.0000 C   0  0  0  0  0  0  0  0  0  0  0  0
    2.4109    2.6193    0.0000 C   0  0  0  0  0  0  0  0  0  0  0  0
    3.7528    1.9490    0.0000 C   0  0  0  0  0  0  0  0  0  0  0  0
   -0.0016   -0.5319    0.0000 C   0  0  0  0  0  0  0  0  0  0  0  0
    0.0889   -2.0292    0.0000 C   0  0  0  0  0  0  0  0  0  0  0  0
    1.4308   -2.6995    0.0000 C   0  0  0  0  0  0  0  0  0  0  0  0
    2.6822   -1.8725    0.0000 C   0  0  0  0  0  0  0  0  0  0  0  0
   -1.3435    0.1384    0.0000 S   0  0  0  0  0  0  0  0  0  0  0  0
   -2.0138   -1.2035    0.0000 O   0  0  0  0  0  0  0  0  0  0  0  0
   -0.6732    1.4803    0.0000 O   0  0  0  0  0  0  0  0  0  0  0  0
   -2.6854    0.8087    0.0000 N   0  0  0  0  0  0  0  0  0  0  0  0
   -4.0164    0.1171    0.0000 C   0  0  0  0  0  0  0  0  0  0  0  0
   -5.0855    1.1692    0.0000 C   0  0  0  0  0  0  0  0  0  0  0  0
   -4.4152    2.5111    0.0000 C   0  0  0  0  0  0  0  0  0  0  0  0
   -2.9318    2.2883    0.0000 C   0  0  0  0  0  0  0  0  0  0  0  0
   -4.2392   -1.3663    0.0000 C   0  0  0  0  0  0  0  0  0  0  0  0
   -3.0660   -2.3009    0.0000 O   0  0  0  0  0  0  0  0  0  0  0  0
   -5.6353   -1.9150    0.0000 O   0  0  0  0  0  0  0  0  0  0  0  0
  1  2  1  0
  2  3  1  0
  2  4  1  0
  4  5  1  0
  5  6  1  0
  6  7  1  0
  7  8  2  0
  8  9  1  0
  6 10  2  0
 10 11  1  0
 11 12  2  0
 12 13  1  0
 10 14  1  0
 14 15  2  0
 14 16  2  0
 14 17  1  0
 17 18  1  0
 18 19  1  0
 19 20  1  0
 20 21  1  0
 18 22  1  6
 22 23  2  0
 22 24  1  0
 21 17  1  0
 13  5  2  0
  9  4  2  0
M  END
>  <rName>  (161) 
Dan-Pro

>  <PQ_SYMBOL>  (161) 
Dan-Pro

>  <FULL_NAME>  (161) 
(2S)-1-[5-(dimethylamino)naphthalen-1-yl]sulfonylpyrrolidine-2-carboxylic acid

>  <IUPAC_CONDENSED>  (161) 
Dan-Pro

>  <IUPAC>  (161) 
(2S)-1-(5-(dimethylamino)naphthalen-1-ylsulfonyl)pyrrolidine-2-carboxylic acid

>  <TYPE>  (161) 
N-term cap

>  <CLASS>  (161) 
n_cap

>  <ANALOG>  (161) 
X

>  <MOL_WT>  (161) 
348.42400000000015

>  <LOGP>  (161) 
2.1435

>  <TPSA>  (161) 
77.92

>  <POPULARITY>  (161) 
7.7

>  <PROTECTED>  (161) 
TRUE

>  <SMILES>  (161) 
CN(C)c3c2c(ccc3)c(ccc2)S(=O)(=O)N1[C@@H](CCC1)C(=O)O

>  <INCHIKEY>  (161) 
ZHJIWURDCGMVQE-HNNXBMFYSA-N

$$$$
5F-uracil-1-acetyl
     RDKit          2D

 13 13  0  0  0  0  0  0  0  0999 V2000
    3.9357   -0.2465    0.0000 O   0  0  0  0  0  0  0  0  0  0  0  0
    2.4558   -0.0015    0.0000 C   0  0  0  0  0  0  0  0  0  0  0  0
    1.5037   -1.1606    0.0000 C   0  0  0  0  0  0  0  0  0  0  0  0
    2.0314   -2.5647    0.0000 F   0  0  0  0  0  0  0  0  0  0  0  0
    0.0238   -0.9155    0.0000 C   0  0  0  0  0  0  0  0  0  0  0  0
   -0.5039    0.4886    0.0000 N   0  0  0  0  0  0  0  0  0  0  0  0
    0.4482    1.6477    0.0000 C   0  0  0  0  0  0  0  0  0  0  0  0
   -0.0795    3.0518    0.0000 O   0  0  0  0  0  0  0  0  0  0  0  0
    1.9281    1.4026    0.0000 N   0  0  0  0  0  0  0  0  0  0  0  0
   -1.9837    0.7336    0.0000 C   0  0  0  0  0  0  0  0  0  0  0  0
   -2.9359   -0.4255    0.0000 C   0  0  0  0  0  0  0  0  0  0  0  0
   -2.4081   -1.8296    0.0000 O   0  0  0  0  0  0  0  0  0  0  0  0
   -4.4157   -0.1804    0.0000 O   0  0  0  0  0  0  0  0  0  0  0  0
  1  2  2  0
  2  3  1  0
  3  4  1  0
  3  5  2  0
  5  6  1  0
  6  7  1  0
  7  8  2  0
  7  9  1  0
  6 10  1  0
 10 11  1  0
 11 12  2  0
 11 13  1  0
  9  2  1  0
M  END
>  <rName>  (162) 
5F-uracil-1-acetyl

>  <PQ_SYMBOL>  (162) 
5F-uracil-1-acetyl

>  <FULL_NAME>  (162) 
2-(5-fluoro-2,4-dioxopyrimidin-1-yl)acetic acid

>  <IUPAC_CONDENSED>  (162) 
5F-uracil-1-acetyl

>  <IUPAC>  (162) 
2-(5-fluoro-2,4-dioxo-1,3-diazacyclohex-5-en-1-yl)acetic acid

>  <TYPE>  (162) 
N-term cap

>  <CLASS>  (162) 
n_cap

>  <ANALOG>  (162) 
X

>  <MOL_WT>  (162) 
188.11399999999998

>  <LOGP>  (162) 
-1.2397000000000002

>  <TPSA>  (162) 
92.16000000000001

>  <POPULARITY>  (162) 
9.5

>  <PROTECTED>  (162) 
TRUE

>  <SMILES>  (162) 
O=c1c(F)cn(c(=O)[nH]1)CC(=O)O

>  <INCHIKEY>  (162) 
CPMUSDZOVZYEJJ-UHFFFAOYSA-N

$$$$
AlaS-2-oxopyrrolidin-3-yl-OMe
     RDKit          2D

 13 13  0  0  0  0  0  0  0  0999 V2000
   -0.9288    1.7820    0.0000 N   0  0  0  0  0  0  0  0  0  0  0  0
   -1.1251    0.2949    0.0000 C   0  0  0  0  0  0  0  0  0  0  0  0
   -2.5110   -0.2787    0.0000 C   0  0  0  0  0  0  0  0  0  0  0  0
   -2.7073   -1.7658    0.0000 O   0  0  0  0  0  0  0  0  0  0  0  0
   -3.7008    0.6348    0.0000 O   0  0  0  0  0  0  0  0  0  0  0  0
   -5.0868    0.0612    0.0000 C   0  0  0  0  0  0  0  0  0  0  0  0
    0.0647   -0.6186    0.0000 C   0  0  0  0  0  0  0  0  0  0  0  0
    1.4507   -0.0450    0.0000 C   0  0  0  0  0  0  0  0  0  0  0  0
    2.7294   -0.8291    0.0000 C   0  0  0  0  0  0  0  0  0  0  0  0
    2.8467   -2.3245    0.0000 O   0  0  0  0  0  0  0  0  0  0  0  0
    3.8703    0.1447    0.0000 N   0  0  0  0  0  0  0  0  0  0  0  0
    3.2967    1.5307    0.0000 C   0  0  0  0  0  0  0  0  0  0  0  0
    1.8013    1.4135    0.0000 C   0  0  0  0  0  0  0  0  0  0  0  0
  2  1  1  1
  2  3  1  0
  3  4  2  0
  3  5  1  0
  5  6  1  0
  2  7  1  0
  8  7  1  6
  8  9  1  0
  9 10  2  0
  9 11  1  0
 11 12  1  0
 12 13  1  0
 13  8  1  0
M  END
>  <rName>  (163) 
AlaS-2-oxopyrrolidin-3-yl-OMe

>  <PQ_SYMBOL>  (163) 
AlaS-2-oxopyrrolidin-3-yl-OMe

>  <FULL_NAME>  (163) 
methyl (2S)-2-amino-3-[(3S)-2-oxopyrrolidin-3-yl]propanoate

>  <IUPAC_CONDENSED>  (163) 
Ala((S)-2-oxopyrrolidin-3-yl)-OMe

>  <IUPAC>  (163) 
methyl (2S)-2-amino-3-((3S)-2-oxopyrrolidin-3-yl)propanoate

>  <TYPE>  (163) 
C-term cap

>  <CLASS>  (163) 
c_cap

>  <ANALOG>  (163) 
X

>  <MOL_WT>  (163) 
186.21099999999998

>  <LOGP>  (163) 
-0.9870999999999996

>  <TPSA>  (163) 
81.42000000000002

>  <POPULARITY>  (163) 
6

>  <PROTECTED>  (163) 
TRUE

>  <SMILES>  (163) 
N[C@H](C(=O)OC)C[C@H]1C(=O)NCC1

>  <INCHIKEY>  (163) 
ZRXQTUVXCKSWQD-WDSKDSINSA-N

$$$$
azetidin-4-one-2-CO2H
     RDKit          2D

  8  8  0  0  0  0  0  0  0  0999 V2000
    3.3883   -0.0000    0.0000 O   0  0  0  0  0  0  0  0  0  0  0  0
    1.8883   -0.0000    0.0000 C   0  0  0  0  0  0  0  0  0  0  0  0
    0.8277   -1.0607    0.0000 C   0  0  0  0  0  0  0  0  0  0  0  0
   -0.2330   -0.0000    0.0000 C   0  0  0  0  0  0  0  0  0  0  0  0
    0.8277    1.0607    0.0000 N   0  0  0  0  0  0  0  0  0  0  0  0
   -1.7330    0.0000    0.0000 C   0  0  0  0  0  0  0  0  0  0  0  0
   -2.4830   -1.2990    0.0000 O   0  0  0  0  0  0  0  0  0  0  0  0
   -2.4830    1.2990    0.0000 O   0  0  0  0  0  0  0  0  0  0  0  0
  1  2  2  0
  2  3  1  0
  3  4  1  0
  4  5  1  0
  4  6  1  1
  6  7  2  0
  6  8  1  0
  5  2  1  0
M  END
>  <rName>  (164) 
azetidin-4-one-2-CO2H

>  <PQ_SYMBOL>  (164) 
azetidin-4-one-2-CO2H

>  <FULL_NAME>  (164) 
(2S)-4-oxoazetidine-2-carboxylic acid

>  <IUPAC_CONDENSED>  (164) 
azetidin-4-one-2-CO2H

>  <IUPAC>  (164) 
(2S)-4-oxoazetidine-2-carboxylic acid

>  <TYPE>  (164) 
N-term cap

>  <CLASS>  (164) 
n_cap

>  <ANALOG>  (164) 
X

>  <MOL_WT>  (164) 
115.08799999999998

>  <LOGP>  (164) 
-1.0405

>  <TPSA>  (164) 
66.4

>  <POPULARITY>  (164) 
10.3

>  <PROTECTED>  (164) 
TRUE

>  <SMILES>  (164) 
O=C1C[C@H](N1)C(=O)O

>  <INCHIKEY>  (164) 
YSPMLLKKKHCTBN-REOHCLBHSA-N

$$$$
Ser-OBn
     RDKit          2D

 14 14  0  0  0  0  0  0  0  0999 V2000
   -2.9396    1.8033    0.0000 N   0  0  0  0  0  0  0  0  0  0  0  0
   -3.1407    0.3168    0.0000 C   0  0  0  0  0  0  0  0  0  0  0  0
   -4.5286   -0.2522    0.0000 C   0  0  0  0  0  0  0  0  0  0  0  0
   -5.7153    0.6652    0.0000 O   0  0  0  0  0  0  0  0  0  0  0  0
   -1.9539   -0.6006    0.0000 C   0  0  0  0  0  0  0  0  0  0  0  0
   -2.1551   -2.0870    0.0000 O   0  0  0  0  0  0  0  0  0  0  0  0
   -0.5661   -0.0315    0.0000 O   0  0  0  0  0  0  0  0  0  0  0  0
    0.6207   -0.9489    0.0000 C   0  0  0  0  0  0  0  0  0  0  0  0
    2.0085   -0.3799    0.0000 C   0  0  0  0  0  0  0  0  0  0  0  0
    2.2097    1.1066    0.0000 C   0  0  0  0  0  0  0  0  0  0  0  0
    3.5975    1.6756    0.0000 C   0  0  0  0  0  0  0  0  0  0  0  0
    4.7843    0.7582    0.0000 C   0  0  0  0  0  0  0  0  0  0  0  0
    4.5832   -0.7282    0.0000 C   0  0  0  0  0  0  0  0  0  0  0  0
    3.1953   -1.2973    0.0000 C   0  0  0  0  0  0  0  0  0  0  0  0
  2  1  1  6
  2  3  1  0
  3  4  1  0
  2  5  1  0
  5  6  2  0
  5  7  1  0
  7  8  1  0
  8  9  1  0
  9 10  2  0
 10 11  1  0
 11 12  2  0
 12 13  1  0
 13 14  2  0
 14  9  1  0
M  END
>  <rName>  (165) 
Ser-OBn

>  <PQ_SYMBOL>  (165) 
Ser-OBn

>  <FULL_NAME>  (165) 
Serine benzyl ester

>  <IUPAC_CONDENSED>  (165) 
Ser-OBn

>  <IUPAC>  (165) 
benzyl (2S)-2-amino-3-hydroxypropanoate

>  <TYPE>  (165) 
C-term cap

>  <CLASS>  (165) 
c_cap

>  <ANALOG>  (165) 
X

>  <MOL_WT>  (165) 
195.21800000000002

>  <LOGP>  (165) 
0.049399999999999666

>  <TPSA>  (165) 
72.55

>  <POPULARITY>  (165) 
9.3

>  <PROTECTED>  (165) 
TRUE

>  <SMILES>  (165) 
N[C@@H](CO)C(=O)OCc1ccccc1

>  <INCHIKEY>  (165) 
IIDNACBMUWTYIV-VIFPVBQESA-N

$$$$
Thz_NH2
     RDKit          2D

  9  9  0  0  0  0  0  0  0  0999 V2000
   -3.3052   -0.8467    0.0000 N   0  0  0  0  0  0  0  0  0  0  0  0
   -1.9481   -0.2077    0.0000 C   0  0  0  0  0  0  0  0  0  0  0  0
   -0.6334   -0.9301    0.0000 N   0  0  0  0  0  0  0  0  0  0  0  0
    0.4598    0.0969    0.0000 C   0  0  0  0  0  0  0  0  0  0  0  0
   -0.1792    1.4541    0.0000 C   0  0  0  0  0  0  0  0  0  0  0  0
   -1.6673    1.2657    0.0000 S   0  0  0  0  0  0  0  0  0  0  0  0
    1.9333   -0.1838    0.0000 C   0  0  0  0  0  0  0  0  0  0  0  0
    2.9132    0.9519    0.0000 O   0  0  0  0  0  0  0  0  0  0  0  0
    2.4269   -1.6003    0.0000 O   0  0  0  0  0  0  0  0  0  0  0  0
  1  2  2  0
  2  3  1  0
  3  4  1  0
  4  5  1  0
  5  6  1  0
  4  7  1  1
  7  8  2  0
  7  9  1  0
  6  2  1  0
M  END
>  <rName>  (166) 
Thz_NH2

>  <PQ_SYMBOL>  (166) 
Thz_NH2

>  <FULL_NAME>  (166) 
(4R)-2-amino-4,5-dihydro-1,3-thiazole-4-carboxylic acid

>  <IUPAC_CONDENSED>  (166) 
Thz(NH2)

>  <IUPAC>  (166) 
(4R)-2-imino-thiazolidine-4-carboxylic acid

>  <TYPE>  (166) 
N-term cap

>  <CLASS>  (166) 
n_cap

>  <ANALOG>  (166) 
X

>  <MOL_WT>  (166) 
146.17100000000002

>  <LOGP>  (166) 
-0.28923000000000015

>  <TPSA>  (166) 
73.18

>  <POPULARITY>  (166) 
6

>  <PROTECTED>  (166) 
TRUE

>  <SMILES>  (166) 
N=C1N[C@@H](CS1)C(=O)O

>  <INCHIKEY>  (166) 
VHPXSBIFWDAFMB-REOHCLBHSA-N

$$$$
CO2iPr-Val
     RDKit          2D

 14 13  0  0  0  0  0  0  0  0999 V2000
   -4.9063    1.0720    0.0000 C   0  0  0  0  0  0  0  0  0  0  0  0
   -3.6156    0.3077    0.0000 C   0  0  0  0  0  0  0  0  0  0  0  0
   -3.6321   -1.1922    0.0000 C   0  0  0  0  0  0  0  0  0  0  0  0
   -2.3083    1.0434    0.0000 O   0  0  0  0  0  0  0  0  0  0  0  0
   -1.0177    0.2791    0.0000 C   0  0  0  0  0  0  0  0  0  0  0  0
   -1.0342   -1.2208    0.0000 O   0  0  0  0  0  0  0  0  0  0  0  0
    0.2896    1.0147    0.0000 N   0  0  0  0  0  0  0  0  0  0  0  0
    1.5803    0.2505    0.0000 C   0  0  0  0  0  0  0  0  0  0  0  0
    2.8875    0.9861    0.0000 C   0  0  0  0  0  0  0  0  0  0  0  0
    4.1782    0.2218    0.0000 C   0  0  0  0  0  0  0  0  0  0  0  0
    2.9040    2.4860    0.0000 C   0  0  0  0  0  0  0  0  0  0  0  0
    1.5637   -1.2495    0.0000 C   0  0  0  0  0  0  0  0  0  0  0  0
    0.2565   -1.9851    0.0000 O   0  0  0  0  0  0  0  0  0  0  0  0
    2.8544   -2.0137    0.0000 O   0  0  0  0  0  0  0  0  0  0  0  0
  1  2  1  0
  2  3  1  0
  2  4  1  0
  4  5  1  0
  5  6  2  0
  5  7  1  0
  8  7  1  1
  8  9  1  0
  9 10  1  0
  9 11  1  0
  8 12  1  0
 12 13  2  0
 12 14  1  0
M  END
>  <rName>  (167) 
CO2iPr-Val

>  <PQ_SYMBOL>  (167) 
CO2iPr-Val

>  <FULL_NAME>  (167) 
(2S)-3-methyl-2-(propan-2-yloxycarbonylamino)butanoic acid

>  <IUPAC_CONDENSED>  (167) 
CO2iPr-Val

>  <IUPAC>  (167) 
(2S)-2-isopropoxycarbonylamino-3-methylbutanoic acid

>  <TYPE>  (167) 
N-term cap

>  <CLASS>  (167) 
n_cap

>  <ANALOG>  (167) 
X

>  <MOL_WT>  (167) 
203.23799999999997

>  <LOGP>  (167) 
1.2301999999999997

>  <TPSA>  (167) 
75.63

>  <POPULARITY>  (167) 
12.5

>  <PROTECTED>  (167) 
TRUE

>  <SMILES>  (167) 
CC(C)OC(=O)N[C@@H](C(C)C)C(=O)O

>  <INCHIKEY>  (167) 
BOEQBJGCRDSQAI-ZETCQYMHSA-N

$$$$
NMe2Ala
     RDKit          2D

  8  7  0  0  0  0  0  0  0  0999 V2000
   -1.2990    1.6875    0.0000 C   0  0  0  0  0  0  0  0  0  0  0  0
   -1.2990    0.1875    0.0000 N   0  0  0  0  0  0  0  0  0  0  0  0
   -2.5981   -0.5625    0.0000 C   0  0  0  0  0  0  0  0  0  0  0  0
    0.0000   -0.5625    0.0000 C   0  0  0  0  0  0  0  0  0  0  0  0
    0.0000   -2.0625    0.0000 C   0  0  0  0  0  0  0  0  0  0  0  0
    1.2990    0.1875    0.0000 C   0  0  0  0  0  0  0  0  0  0  0  0
    1.2990    1.6875    0.0000 O   0  0  0  0  0  0  0  0  0  0  0  0
    2.5981   -0.5625    0.0000 O   0  0  0  0  0  0  0  0  0  0  0  0
  1  2  1  0
  2  3  1  0
  2  4  1  0
  4  5  1  6
  4  6  1  0
  6  7  2  0
  6  8  1  0
M  END
>  <rName>  (168) 
NMe2Ala

>  <PQ_SYMBOL>  (168) 
NMe2Ala

>  <FULL_NAME>  (168) 
methyl N-Methyl-Alanine

>  <IUPAC_CONDENSED>  (168) 
N(Me2)Ala

>  <IUPAC>  (168) 
(2S)-2-(dimethylamino)propanoic acid

>  <TYPE>  (168) 
N-term cap

>  <CLASS>  (168) 
n_cap

>  <ANALOG>  (168) 
X

>  <MOL_WT>  (168) 
117.14799999999998

>  <LOGP>  (168) 
0.021100000000000063

>  <TPSA>  (168) 
40.540000000000006

>  <POPULARITY>  (168) 
25.8

>  <PROTECTED>  (168) 
TRUE

>  <SMILES>  (168) 
CN(C)[C@@H](C)C(=O)O

>  <INCHIKEY>  (168) 
QCYOIFVBYZNUNW-BYPYZUCNSA-N

$$$$
Gly-OEt
     RDKit          2D

  7  6  0  0  0  0  0  0  0  0999 V2000
    3.1507   -0.1928    0.0000 N   0  0  0  0  0  0  0  0  0  0  0  0
    1.7864   -0.8161    0.0000 C   0  0  0  0  0  0  0  0  0  0  0  0
    0.5644    0.0538    0.0000 C   0  0  0  0  0  0  0  0  0  0  0  0
    0.7068    1.5470    0.0000 O   0  0  0  0  0  0  0  0  0  0  0  0
   -0.8000   -0.5695    0.0000 O   0  0  0  0  0  0  0  0  0  0  0  0
   -2.0220    0.3004    0.0000 C   0  0  0  0  0  0  0  0  0  0  0  0
   -3.3863   -0.3229    0.0000 C   0  0  0  0  0  0  0  0  0  0  0  0
  1  2  1  0
  2  3  1  0
  3  4  2  0
  3  5  1  0
  5  6  1  0
  6  7  1  0
M  END
>  <rName>  (169) 
Gly-OEt

>  <PQ_SYMBOL>  (169) 
Gly-OEt

>  <FULL_NAME>  (169) 
ethyl 2-aminoacetate

>  <IUPAC_CONDENSED>  (169) 
Gly-OEt

>  <IUPAC>  (169) 
ethyl 2-aminoacetate

>  <TYPE>  (169) 
C-term cap

>  <CLASS>  (169) 
c_cap

>  <ANALOG>  (169) 
X

>  <MOL_WT>  (169) 
103.121

>  <LOGP>  (169) 
-0.49180000000000024

>  <TPSA>  (169) 
52.32000000000001

>  <POPULARITY>  (169) 
29.9

>  <PROTECTED>  (169) 
TRUE

>  <SMILES>  (169) 
NCC(=O)OCC

>  <INCHIKEY>  (169) 
NTNZTEQNFHNYBC-UHFFFAOYSA-N

$$$$
Me-Ala-OMe
     RDKit          2D

  8  7  0  0  0  0  0  0  0  0999 V2000
    2.1094   -0.1242    0.0000 N   0  0  0  0  0  0  0  0  0  0  0  0
    2.2639    1.3678    0.0000 C   0  0  0  0  0  0  0  0  0  0  0  0
    0.7400   -0.7364    0.0000 C   0  0  0  0  0  0  0  0  0  0  0  0
    0.5855   -2.2284    0.0000 C   0  0  0  0  0  0  0  0  0  0  0  0
   -0.4749    0.1434    0.0000 C   0  0  0  0  0  0  0  0  0  0  0  0
   -0.3204    1.6355    0.0000 O   0  0  0  0  0  0  0  0  0  0  0  0
   -1.8443   -0.4688    0.0000 O   0  0  0  0  0  0  0  0  0  0  0  0
   -3.0591    0.4111    0.0000 C   0  0  0  0  0  0  0  0  0  0  0  0
  1  2  1  0
  1  3  1  0
  3  4  1  1
  3  5  1  0
  5  6  2  0
  5  7  1  0
  7  8  1  0
M  END
>  <rName>  (170) 
Me-Ala-OMe

>  <PQ_SYMBOL>  (170) 
Me-Ala-OMe

>  <FULL_NAME>  (170) 
methyl (2S)-2-(methylamino)propanoate

>  <IUPAC_CONDENSED>  (170) 
Me-Ala-OMe

>  <IUPAC>  (170) 
methyl (2S)-2-(methylamino)propanoate

>  <TYPE>  (170) 
C-term cap

>  <CLASS>  (170) 
c_cap

>  <ANALOG>  (170) 
X

>  <MOL_WT>  (170) 
117.14799999999998

>  <LOGP>  (170) 
-0.23270000000000035

>  <TPSA>  (170) 
38.33

>  <POPULARITY>  (170) 
17

>  <PROTECTED>  (170) 
TRUE

>  <SMILES>  (170) 
N(C)[C@@H](C)C(=O)OC

>  <INCHIKEY>  (170) 
PQIUHUKRJAOTLS-BYPYZUCNSA-N

$$$$
PhNHCO-Val
     RDKit          2D

 17 17  0  0  0  0  0  0  0  0999 V2000
   -5.2667   -0.6190    0.0000 C   0  0  0  0  0  0  0  0  0  0  0  0
   -5.1408    0.8757    0.0000 C   0  0  0  0  0  0  0  0  0  0  0  0
   -3.7834    1.5140    0.0000 C   0  0  0  0  0  0  0  0  0  0  0  0
   -2.5519    0.6577    0.0000 C   0  0  0  0  0  0  0  0  0  0  0  0
   -2.6778   -0.8371    0.0000 C   0  0  0  0  0  0  0  0  0  0  0  0
   -4.0352   -1.4754    0.0000 C   0  0  0  0  0  0  0  0  0  0  0  0
   -1.1945    1.2960    0.0000 N   0  0  0  0  0  0  0  0  0  0  0  0
    0.0370    0.4396    0.0000 C   0  0  0  0  0  0  0  0  0  0  0  0
   -0.0889   -1.0551    0.0000 O   0  0  0  0  0  0  0  0  0  0  0  0
    1.3944    1.0780    0.0000 N   0  0  0  0  0  0  0  0  0  0  0  0
    2.6259    0.2216    0.0000 C   0  0  0  0  0  0  0  0  0  0  0  0
    3.9833    0.8599    0.0000 C   0  0  0  0  0  0  0  0  0  0  0  0
    5.2148    0.0035    0.0000 C   0  0  0  0  0  0  0  0  0  0  0  0
    4.1092    2.3546    0.0000 C   0  0  0  0  0  0  0  0  0  0  0  0
    2.5001   -1.2731    0.0000 C   0  0  0  0  0  0  0  0  0  0  0  0
    1.1427   -1.9115    0.0000 O   0  0  0  0  0  0  0  0  0  0  0  0
    3.7316   -2.1295    0.0000 O   0  0  0  0  0  0  0  0  0  0  0  0
  1  2  2  0
  2  3  1  0
  3  4  2  0
  4  5  1  0
  5  6  2  0
  4  7  1  0
  7  8  1  0
  8  9  2  0
  8 10  1  0
 11 10  1  1
 11 12  1  0
 12 13  1  0
 12 14  1  0
 11 15  1  0
 15 16  2  0
 15 17  1  0
  6  1  1  0
M  END
>  <rName>  (171) 
PhNHCO-Val

>  <PQ_SYMBOL>  (171) 
PhNHCO-Val

>  <FULL_NAME>  (171) 
(2S)-3-methyl-2-(phenylcarbamoylamino)butanoic acid

>  <IUPAC_CONDENSED>  (171) 
PhNHCO-Val

>  <IUPAC>  (171) 
(2S)-3-methyl-2-(phenylcarbamoylamino)butanoic acid

>  <TYPE>  (171) 
N-term cap

>  <CLASS>  (171) 
n_cap

>  <ANALOG>  (171) 
X

>  <MOL_WT>  (171) 
236.271

>  <LOGP>  (171) 
1.9172999999999998

>  <TPSA>  (171) 
78.43

>  <POPULARITY>  (171) 
8.8

>  <PROTECTED>  (171) 
TRUE

>  <SMILES>  (171) 
c1ccc(cc1)NC(=O)N[C@@H](C(C)C)C(=O)O

>  <INCHIKEY>  (171) 
IIJAEFRNONKHQP-JTQLQIEISA-N

$$$$
Mbzl-Gly-
     RDKit          2D

 13 13  0  0  0  0  0  0  0  0999 V2000
   -1.6537   -0.1855    0.0000 N   0  0  0  0  0  0  0  0  0  0  0  0
   -0.4997   -1.1437    0.0000 C   0  0  0  0  0  0  0  0  0  0  0  0
    0.9072   -0.6234    0.0000 C   0  0  0  0  0  0  0  0  0  0  0  0
    1.1600    0.8552    0.0000 C   0  0  0  0  0  0  0  0  0  0  0  0
    2.5669    1.3755    0.0000 C   0  0  0  0  0  0  0  0  0  0  0  0
    3.7209    0.4173    0.0000 C   0  0  0  0  0  0  0  0  0  0  0  0
    5.1278    0.9376    0.0000 C   0  0  0  0  0  0  0  0  0  0  0  0
    3.4681   -1.0612    0.0000 C   0  0  0  0  0  0  0  0  0  0  0  0
    2.0612   -1.5816    0.0000 C   0  0  0  0  0  0  0  0  0  0  0  0
   -3.0606   -0.7058    0.0000 C   0  0  0  0  0  0  0  0  0  0  0  0
   -4.2146    0.2524    0.0000 C   0  0  0  0  0  0  0  0  0  0  0  0
   -3.9618    1.7310    0.0000 O   0  0  0  0  0  0  0  0  0  0  0  0
   -5.6215   -0.2679    0.0000 O   0  0  0  0  0  0  0  0  0  0  0  0
  1  2  1  0
  2  3  1  0
  3  4  1  0
  4  5  2  0
  5  6  1  0
  6  7  1  0
  6  8  2  0
  8  9  1  0
  1 10  1  0
 10 11  1  0
 11 12  2  0
 11 13  1  0
  9  3  2  0
M  END
>  <rName>  (172) 
Mbzl-Gly-

>  <PQ_SYMBOL>  (172) 
Mbzl-Gly-

>  <FULL_NAME>  (172) 
2-[(4-methylphenyl)methylamino]acetic acid

>  <IUPAC_CONDENSED>  (172) 
Mbzl-Gly

>  <IUPAC>  (172) 
2-(((4-methylphenyl)methyl)amino)acetic acid

>  <TYPE>  (172) 
N-term cap

>  <CLASS>  (172) 
n_cap

>  <ANALOG>  (172) 
X

>  <MOL_WT>  (172) 
179.21899999999997

>  <LOGP>  (172) 
1.16922

>  <TPSA>  (172) 
49.33

>  <POPULARITY>  (172) 
15.5

>  <PROTECTED>  (172) 
TRUE

>  <SMILES>  (172) 
N(Cc1(ccc(C)cc1))CC(=O)O

>  <INCHIKEY>  (172) 
LZBYHWQHNZFDSR-UHFFFAOYSA-N

$$$$
Lys-OBn
     RDKit          2D

 17 17  0  0  0  0  0  0  0  0999 V2000
   -1.5241    1.6593    0.0000 N   0  0  0  0  0  0  0  0  0  0  0  0
   -1.6728    0.1667    0.0000 C   0  0  0  0  0  0  0  0  0  0  0  0
   -3.0398   -0.4507    0.0000 C   0  0  0  0  0  0  0  0  0  0  0  0
   -4.2581    0.4244    0.0000 C   0  0  0  0  0  0  0  0  0  0  0  0
   -5.6251   -0.1931    0.0000 C   0  0  0  0  0  0  0  0  0  0  0  0
   -6.8434    0.6821    0.0000 C   0  0  0  0  0  0  0  0  0  0  0  0
   -8.2104    0.0646    0.0000 N   0  0  0  0  0  0  0  0  0  0  0  0
   -0.4546   -0.7084    0.0000 C   0  0  0  0  0  0  0  0  0  0  0  0
   -0.6033   -2.2010    0.0000 O   0  0  0  0  0  0  0  0  0  0  0  0
    0.9124   -0.0909    0.0000 O   0  0  0  0  0  0  0  0  0  0  0  0
    2.1307   -0.9661    0.0000 C   0  0  0  0  0  0  0  0  0  0  0  0
    3.4977   -0.3486    0.0000 C   0  0  0  0  0  0  0  0  0  0  0  0
    3.6465    1.1440    0.0000 C   0  0  0  0  0  0  0  0  0  0  0  0
    5.0135    1.7615    0.0000 C   0  0  0  0  0  0  0  0  0  0  0  0
    6.2317    0.8863    0.0000 C   0  0  0  0  0  0  0  0  0  0  0  0
    6.0830   -0.6063    0.0000 C   0  0  0  0  0  0  0  0  0  0  0  0
    4.7160   -1.2237    0.0000 C   0  0  0  0  0  0  0  0  0  0  0  0
  2  1  1  6
  2  3  1  0
  3  4  1  0
  4  5  1  0
  5  6  1  0
  6  7  1  0
  2  8  1  0
  8  9  2  0
  8 10  1  0
 10 11  1  0
 11 12  1  0
 12 13  2  0
 13 14  1  0
 14 15  2  0
 15 16  1  0
 16 17  2  0
 17 12  1  0
M  END
>  <rName>  (173) 
Lys-OBn

>  <PQ_SYMBOL>  (173) 
Lys-OBn

>  <FULL_NAME>  (173) 
Lysine benzyl ester

>  <IUPAC_CONDENSED>  (173) 
Lys-OBn

>  <IUPAC>  (173) 
benzyl (2S)-2,6-diaminohexanoate

>  <TYPE>  (173) 
C-term cap

>  <CLASS>  (173) 
c_cap

>  <ANALOG>  (173) 
X

>  <MOL_WT>  (173) 
236.31500000000003

>  <LOGP>  (173) 
1.1860999999999995

>  <TPSA>  (173) 
78.34

>  <POPULARITY>  (173) 
7.5

>  <PROTECTED>  (173) 
TRUE

>  <SMILES>  (173) 
N[C@@H](CCCCN)C(=O)OCc1ccccc1

>  <INCHIKEY>  (173) 
XXAYGJGDVLSEML-LBPRGKRZSA-N

$$$$
-Glu-OMe
     RDKit          2D

 11 10  0  0  0  0  0  0  0  0999 V2000
    0.7523   -2.0298    0.0000 N   0  0  0  0  0  0  0  0  0  0  0  0
    0.7201   -0.5301    0.0000 C   0  0  0  0  0  0  0  0  0  0  0  0
    2.0028    0.2476    0.0000 C   0  0  0  0  0  0  0  0  0  0  0  0
    1.9706    1.7472    0.0000 O   0  0  0  0  0  0  0  0  0  0  0  0
    3.3176   -0.4744    0.0000 O   0  0  0  0  0  0  0  0  0  0  0  0
    4.6002    0.3033    0.0000 C   0  0  0  0  0  0  0  0  0  0  0  0
   -0.5947    0.1918    0.0000 C   0  0  0  0  0  0  0  0  0  0  0  0
   -1.8774   -0.5859    0.0000 C   0  0  0  0  0  0  0  0  0  0  0  0
   -3.1922    0.1361    0.0000 C   0  0  0  0  0  0  0  0  0  0  0  0
   -3.2244    1.6357    0.0000 O   0  0  0  0  0  0  0  0  0  0  0  0
   -4.4748   -0.6416    0.0000 O   0  0  0  0  0  0  0  0  0  0  0  0
  2  1  1  1
  2  3  1  0
  3  4  2  0
  3  5  1  0
  5  6  1  0
  2  7  1  0
  7  8  1  0
  8  9  1  0
  9 10  2  0
  9 11  1  0
M  END
>  <rName>  (174) 
-Glu-OMe

>  <PQ_SYMBOL>  (174) 
-Glu-OMe

>  <FULL_NAME>  (174) 
Glutamic acid methyl ester

>  <IUPAC_CONDENSED>  (174) 
Glu-OMe

>  <IUPAC>  (174) 
(4S)-4-amino-4-(methoxycarbonyl)butanoic acid

>  <TYPE>  (174) 
C-term cap

>  <CLASS>  (174) 
c_cap

>  <ANALOG>  (174) 
X

>  <MOL_WT>  (174) 
161.157

>  <LOGP>  (174) 
-0.6484999999999999

>  <TPSA>  (174) 
89.62000000000002

>  <POPULARITY>  (174) 
10.9

>  <PROTECTED>  (174) 
TRUE

>  <SMILES>  (174) 
N[C@H](C(=O)OC)CCC(=O)O

>  <INCHIKEY>  (174) 
SEWIYICDCVPBEW-BYPYZUCNSA-N

$$$$
Leu-OBn
     RDKit          2D

 16 16  0  0  0  0  0  0  0  0999 V2000
   -2.2343    1.5490    0.0000 N   0  0  0  0  0  0  0  0  0  0  0  0
   -2.3581    0.0541    0.0000 C   0  0  0  0  0  0  0  0  0  0  0  0
   -3.7146   -0.5861    0.0000 C   0  0  0  0  0  0  0  0  0  0  0  0
   -4.9473    0.2685    0.0000 C   0  0  0  0  0  0  0  0  0  0  0  0
   -6.3038   -0.3717    0.0000 C   0  0  0  0  0  0  0  0  0  0  0  0
   -4.8235    1.7634    0.0000 C   0  0  0  0  0  0  0  0  0  0  0  0
   -1.1254   -0.8005    0.0000 C   0  0  0  0  0  0  0  0  0  0  0  0
   -1.2491   -2.2954    0.0000 O   0  0  0  0  0  0  0  0  0  0  0  0
    0.2311   -0.1602    0.0000 O   0  0  0  0  0  0  0  0  0  0  0  0
    1.4639   -1.0149    0.0000 C   0  0  0  0  0  0  0  0  0  0  0  0
    2.8204   -0.3746    0.0000 C   0  0  0  0  0  0  0  0  0  0  0  0
    2.9441    1.1203    0.0000 C   0  0  0  0  0  0  0  0  0  0  0  0
    4.3006    1.7605    0.0000 C   0  0  0  0  0  0  0  0  0  0  0  0
    5.5333    0.9059    0.0000 C   0  0  0  0  0  0  0  0  0  0  0  0
    5.4096   -0.5890    0.0000 C   0  0  0  0  0  0  0  0  0  0  0  0
    4.0531   -1.2293    0.0000 C   0  0  0  0  0  0  0  0  0  0  0  0
  2  1  1  6
  2  3  1  0
  3  4  1  0
  4  5  1  0
  4  6  1  0
  2  7  1  0
  7  8  2  0
  7  9  1  0
  9 10  1  0
 10 11  1  0
 11 12  2  0
 12 13  1  0
 13 14  2  0
 14 15  1  0
 15 16  2  0
 16 11  1  0
M  END
>  <rName>  (175) 
Leu-OBn

>  <PQ_SYMBOL>  (175) 
Leu-OBn

>  <FULL_NAME>  (175) 
L-Leucine benzyl ester

>  <IUPAC_CONDENSED>  (175) 
Leu-OBn

>  <IUPAC>  (175) 
benzyl (2S)-2-amino-4-methylpentanoate

>  <TYPE>  (175) 
C-term cap

>  <CLASS>  (175) 
c_cap

>  <ANALOG>  (175) 
X

>  <MOL_WT>  (175) 
221.3

>  <LOGP>  (175) 
2.1031999999999997

>  <TPSA>  (175) 
52.32000000000001

>  <POPULARITY>  (175) 
10.8

>  <PROTECTED>  (175) 
TRUE

>  <SMILES>  (175) 
N[C@@H](CC(C)C)C(=O)OCc1ccccc1

>  <INCHIKEY>  (175) 
MBRRYUQWSOODEO-LBPRGKRZSA-N

$$$$
piperazinoacetyl
     RDKit          2D

 10 10  0  0  0  0  0  0  0  0999 V2000
   -3.0048   -0.4910    0.0000 N   0  0  0  0  0  0  0  0  0  0  0  0
   -2.7213    0.9820    0.0000 C   0  0  0  0  0  0  0  0  0  0  0  0
   -1.3040    1.4730    0.0000 C   0  0  0  0  0  0  0  0  0  0  0  0
   -0.1701    0.4910    0.0000 N   0  0  0  0  0  0  0  0  0  0  0  0
   -0.4536   -0.9820    0.0000 C   0  0  0  0  0  0  0  0  0  0  0  0
   -1.8709   -1.4730    0.0000 C   0  0  0  0  0  0  0  0  0  0  0  0
    1.2473    0.9820    0.0000 C   0  0  0  0  0  0  0  0  0  0  0  0
    2.3812   -0.0000    0.0000 C   0  0  0  0  0  0  0  0  0  0  0  0
    2.0977   -1.4730    0.0000 O   0  0  0  0  0  0  0  0  0  0  0  0
    3.7985    0.4910    0.0000 O   0  0  0  0  0  0  0  0  0  0  0  0
  1  2  1  0
  2  3  1  0
  3  4  1  0
  4  5  1  0
  5  6  1  0
  4  7  1  0
  7  8  1  0
  8  9  2  0
  8 10  1  0
  6  1  1  0
M  END
>  <rName>  (176) 
piperazinoacetyl

>  <PQ_SYMBOL>  (176) 
piperazinoacetyl

>  <FULL_NAME>  (176) 
2-piperazin-1-ylacetic acid

>  <IUPAC_CONDENSED>  (176) 
piperazinoacetyl

>  <IUPAC>  (176) 
2-(piperazin-1-yl)acetic acid

>  <TYPE>  (176) 
N-term cap

>  <CLASS>  (176) 
n_cap

>  <ANALOG>  (176) 
X

>  <MOL_WT>  (176) 
144.174

>  <LOGP>  (176) 
-1.0237999999999992

>  <TPSA>  (176) 
52.57000000000001

>  <POPULARITY>  (176) 
16.1

>  <PROTECTED>  (176) 
TRUE

>  <SMILES>  (176) 
N1CCN(CC1)CC(=O)O

>  <INCHIKEY>  (176) 
WRJZKSHNBALIGH-UHFFFAOYSA-N

$$$$
H2NCO-Tyr
     RDKit          2D

 16 16  0  0  0  0  0  0  0  0999 V2000
   -5.2973   -1.0901    0.0000 O   0  0  0  0  0  0  0  0  0  0  0  0
   -3.9437   -0.4437    0.0000 C   0  0  0  0  0  0  0  0  0  0  0  0
   -3.8267    1.0517    0.0000 C   0  0  0  0  0  0  0  0  0  0  0  0
   -2.4731    1.6981    0.0000 C   0  0  0  0  0  0  0  0  0  0  0  0
   -1.2366    0.8491    0.0000 C   0  0  0  0  0  0  0  0  0  0  0  0
   -1.3536   -0.6464    0.0000 C   0  0  0  0  0  0  0  0  0  0  0  0
   -2.7072   -1.2928    0.0000 C   0  0  0  0  0  0  0  0  0  0  0  0
    0.1170    1.4954    0.0000 C   0  0  0  0  0  0  0  0  0  0  0  0
    1.3536    0.6464    0.0000 C   0  0  0  0  0  0  0  0  0  0  0  0
    1.2366   -0.8491    0.0000 N   0  0  0  0  0  0  0  0  0  0  0  0
    2.4731   -1.6981    0.0000 C   0  0  0  0  0  0  0  0  0  0  0  0
    3.8267   -1.0517    0.0000 O   0  0  0  0  0  0  0  0  0  0  0  0
    2.3561   -3.1935    0.0000 N   0  0  0  0  0  0  0  0  0  0  0  0
    2.7072    1.2928    0.0000 C   0  0  0  0  0  0  0  0  0  0  0  0
    2.8242    2.7882    0.0000 O   0  0  0  0  0  0  0  0  0  0  0  0
    3.9437    0.4437    0.0000 O   0  0  0  0  0  0  0  0  0  0  0  0
  1  2  1  0
  2  3  1  0
  3  4  2  0
  4  5  1  0
  5  6  2  0
  6  7  1  0
  5  8  1  0
  9  8  1  1
  9 10  1  0
 10 11  1  0
 11 12  2  0
 11 13  1  0
  9 14  1  0
 14 15  2  0
 14 16  1  0
  7  2  2  0
M  END
>  <rName>  (177) 
H2NCO-Tyr

>  <PQ_SYMBOL>  (177) 
H2NCO-Tyr

>  <FULL_NAME>  (177) 
(2S)-2-(carbamoylamino)-3-(4-hydroxyphenyl)propanoic acid

>  <IUPAC_CONDENSED>  (177) 
H2NCO-Tyr

>  <IUPAC>  (177) 
(2S)-2-(carbamoylamino)-3-(4-hydroxyphenyl)propanoic acid

>  <TYPE>  (177) 
N-term cap

>  <CLASS>  (177) 
n_cap

>  <ANALOG>  (177) 
X

>  <MOL_WT>  (177) 
224.21599999999998

>  <LOGP>  (177) 
0.05619999999999986

>  <TPSA>  (177) 
112.64999999999999

>  <POPULARITY>  (177) 
12.5

>  <PROTECTED>  (177) 
TRUE

>  <SMILES>  (177) 
Oc1ccc(cc1)C[C@H](NC(=O)N)C(=O)O

>  <INCHIKEY>  (177) 
PNLKYZVGQWCHBH-QMMMGPOBSA-N

$$$$
Ac3c-OMe
     RDKit          2D

  8  8  0  0  0  0  0  0  0  0999 V2000
   -0.6842   -1.7222    0.0000 N   0  0  0  0  0  0  0  0  0  0  0  0
   -0.9510   -0.2461    0.0000 C   0  0  0  0  0  0  0  0  0  0  0  0
   -1.7066    1.0497    0.0000 C   0  0  0  0  0  0  0  0  0  0  0  0
   -2.4510   -0.2525    0.0000 C   0  0  0  0  0  0  0  0  0  0  0  0
    0.4563    0.2730    0.0000 C   0  0  0  0  0  0  0  0  0  0  0  0
    0.7104    1.7513    0.0000 O   0  0  0  0  0  0  0  0  0  0  0  0
    1.6095   -0.6862    0.0000 O   0  0  0  0  0  0  0  0  0  0  0  0
    3.0168   -0.1671    0.0000 C   0  0  0  0  0  0  0  0  0  0  0  0
  1  2  1  0
  2  3  1  0
  3  4  1  0
  2  5  1  0
  5  6  2  0
  5  7  1  0
  7  8  1  0
  4  2  1  0
M  END
>  <rName>  (178) 
Ac3c-OMe

>  <PQ_SYMBOL>  (178) 
Ac3c-OMe

>  <FULL_NAME>  (178) 
methyl 1-aminocyclopropane-1-carboxylate

>  <IUPAC_CONDENSED>  (178) 
Ac3c-OMe

>  <IUPAC>  (178) 
methyl 1-aminocyclopropanecarboxylate

>  <TYPE>  (178) 
C-term cap

>  <CLASS>  (178) 
c_cap

>  <ANALOG>  (178) 
X

>  <MOL_WT>  (178) 
115.13199999999999

>  <LOGP>  (178) 
-0.34930000000000017

>  <TPSA>  (178) 
52.32000000000001

>  <POPULARITY>  (178) 
8.2

>  <PROTECTED>  (178) 
TRUE

>  <SMILES>  (178) 
NC1(CC1)C(=O)OC

>  <INCHIKEY>  (178) 
CSHMCEYIMFSLSS-UHFFFAOYSA-N

$$$$
amidino-Sar
     RDKit          2D

  9  8  0  0  0  0  0  0  0  0999 V2000
    0.2064   -1.6788    0.0000 N   0  0  0  0  0  0  0  0  0  0  0  0
    1.2325   -0.5848    0.0000 C   0  0  0  0  0  0  0  0  0  0  0  0
    2.6931   -0.9264    0.0000 N   0  0  0  0  0  0  0  0  0  0  0  0
    0.7981    0.8510    0.0000 N   0  0  0  0  0  0  0  0  0  0  0  0
    1.8243    1.9450    0.0000 C   0  0  0  0  0  0  0  0  0  0  0  0
   -0.6625    1.1926    0.0000 C   0  0  0  0  0  0  0  0  0  0  0  0
   -1.6886    0.0985    0.0000 C   0  0  0  0  0  0  0  0  0  0  0  0
   -1.2542   -1.3372    0.0000 O   0  0  0  0  0  0  0  0  0  0  0  0
   -3.1492    0.4401    0.0000 O   0  0  0  0  0  0  0  0  0  0  0  0
  1  2  1  0
  2  3  2  0
  2  4  1  0
  4  5  1  0
  4  6  1  0
  6  7  1  0
  7  8  2  0
  7  9  1  0
M  END
>  <rName>  (179) 
amidino-Sar

>  <PQ_SYMBOL>  (179) 
amidino-Sar

>  <FULL_NAME>  (179) 
2-[carbamimidoyl(methyl)amino]acetic acid

>  <IUPAC_CONDENSED>  (179) 
amidino-Sar

>  <IUPAC>  (179) 
2-(((amino)(imino)methyl)(methyl)amino)acetic acid

>  <TYPE>  (179) 
N-term cap

>  <CLASS>  (179) 
n_cap

>  <ANALOG>  (179) 
X

>  <MOL_WT>  (179) 
131.135

>  <LOGP>  (179) 
-1.1037299999999999

>  <TPSA>  (179) 
90.41000000000001

>  <POPULARITY>  (179) 
13

>  <PROTECTED>  (179) 
TRUE

>  <SMILES>  (179) 
NC(=N)N(C)CC(=O)O

>  <INCHIKEY>  (179) 
CVSVTCORWBXHQV-UHFFFAOYSA-N

$$$$
decahydroisoquinoline-3-CO2H
     RDKit          2D

 13 14  0  0  0  0  0  0  0  0999 V2000
   -1.2457    1.5283    0.0000 N   0  0  0  0  0  0  0  0  0  0  0  0
   -1.6339    0.0794    0.0000 C   0  0  0  0  0  0  0  0  0  0  0  0
   -0.5733   -0.9812    0.0000 C   0  0  0  0  0  0  0  0  0  0  0  0
    0.8756   -0.5930    0.0000 C   0  0  0  0  0  0  0  0  0  0  0  0
    1.9363   -1.6536    0.0000 C   0  0  0  0  0  0  0  0  0  0  0  0
    3.3852   -1.2654    0.0000 C   0  0  0  0  0  0  0  0  0  0  0  0
    3.7734    0.1835    0.0000 C   0  0  0  0  0  0  0  0  0  0  0  0
    2.7127    1.2441    0.0000 C   0  0  0  0  0  0  0  0  0  0  0  0
    1.2638    0.8559    0.0000 C   0  0  0  0  0  0  0  0  0  0  0  0
    0.2032    1.9166    0.0000 C   0  0  0  0  0  0  0  0  0  0  0  0
   -3.0828   -0.3088    0.0000 C   0  0  0  0  0  0  0  0  0  0  0  0
   -3.4710   -1.7577    0.0000 O   0  0  0  0  0  0  0  0  0  0  0  0
   -4.1435    0.7519    0.0000 O   0  0  0  0  0  0  0  0  0  0  0  0
  1  2  1  0
  2  3  1  0
  4  3  1  1
  4  5  1  0
  5  6  1  0
  6  7  1  0
  7  8  1  0
  9  8  1  1
  9 10  1  0
  2 11  1  1
 11 12  2  0
 11 13  1  0
  9  4  1  0
 10  1  1  0
M  END
>  <rName>  (180) 
decahydroisoquinoline-3-CO2H

>  <PQ_SYMBOL>  (180) 
decahydroisoquinoline-3-CO2H

>  <FULL_NAME>  (180) 
(3S,4aS,8aS)-1,2,3,4,4a,5,6,7,8,8a-decahydroisoquinoline-3-carboxylic acid

>  <IUPAC_CONDENSED>  (180) 
decahydroisoquinoline-3-CO2H

>  <IUPAC>  (180) 
(1S,4S,6S)-3-azabicyclo[4.4.0]decane-4-carboxylic acid

>  <TYPE>  (180) 
N-term cap

>  <CLASS>  (180) 
n_cap

>  <ANALOG>  (180) 
X

>  <MOL_WT>  (180) 
183.251

>  <LOGP>  (180) 
1.2392999999999998

>  <TPSA>  (180) 
49.33

>  <POPULARITY>  (180) 
10.5

>  <PROTECTED>  (180) 
TRUE

>  <SMILES>  (180) 
N2[C@@H](C[C@@H]1(CCCC[C@@H]1C2))C(=O)O

>  <INCHIKEY>  (180) 
NSENYWQRQUNUGD-YIZRAAEISA-N

$$$$
Phe-Me
     RDKit          2D

 12 12  0  0  0  0  0  0  0  0999 V2000
   -1.2391    1.6805    0.0000 N   0  0  0  0  0  0  0  0  0  0  0  0
   -1.6184    0.2292    0.0000 C   0  0  0  0  0  0  0  0  0  0  0  0
   -3.0649   -0.1679    0.0000 C   0  0  0  0  0  0  0  0  0  0  0  0
   -3.4442   -1.6191    0.0000 O   0  0  0  0  0  0  0  0  0  0  0  0
   -4.1321    0.8862    0.0000 C   0  0  0  0  0  0  0  0  0  0  0  0
   -0.5513   -0.8249    0.0000 C   0  0  0  0  0  0  0  0  0  0  0  0
    0.8952   -0.4278    0.0000 C   0  0  0  0  0  0  0  0  0  0  0  0
    1.2745    1.0235    0.0000 C   0  0  0  0  0  0  0  0  0  0  0  0
    2.7210    1.4206    0.0000 C   0  0  0  0  0  0  0  0  0  0  0  0
    3.7882    0.3665    0.0000 C   0  0  0  0  0  0  0  0  0  0  0  0
    3.4088   -1.0848    0.0000 C   0  0  0  0  0  0  0  0  0  0  0  0
    1.9624   -1.4819    0.0000 C   0  0  0  0  0  0  0  0  0  0  0  0
  2  1  1  1
  2  3  1  0
  3  4  2  0
  3  5  1  0
  2  6  1  0
  6  7  1  0
  7  8  2  0
  8  9  1  0
  9 10  2  0
 10 11  1  0
 11 12  2  0
 12  7  1  0
M  END
>  <rName>  (181) 
Phe-Me

>  <PQ_SYMBOL>  (181) 
Phe-Me

>  <FULL_NAME>  (181) 
Phenylalanine methyl

>  <IUPAC_CONDENSED>  (181) 
Phe-Me

>  <IUPAC>  (181) 
(3S)-3-amino-4-phenylbutan-2-one

>  <TYPE>  (181) 
C-term cap

>  <CLASS>  (181) 
c_cap

>  <ANALOG>  (181) 
X

>  <MOL_WT>  (181) 
163.22

>  <LOGP>  (181) 
1.1454

>  <TPSA>  (181) 
43.09

>  <POPULARITY>  (181) 
12.5

>  <PROTECTED>  (181) 
TRUE

>  <SMILES>  (181) 
N[C@H](C(=O)C)Cc1ccccc1

>  <INCHIKEY>  (181) 
RTUDQBPZFFIRAD-JTQLQIEISA-N

$$$$
NMe2Ser
     RDKit          2D

  9  8  0  0  0  0  0  0  0  0999 V2000
    2.2500   -1.5877    0.0000 O   0  0  0  0  0  0  0  0  0  0  0  0
    0.7500   -1.5877    0.0000 C   0  0  0  0  0  0  0  0  0  0  0  0
   -0.0000   -0.2887    0.0000 C   0  0  0  0  0  0  0  0  0  0  0  0
   -1.5000   -0.2887    0.0000 N   0  0  0  0  0  0  0  0  0  0  0  0
   -2.2500    1.0104    0.0000 C   0  0  0  0  0  0  0  0  0  0  0  0
   -2.2500   -1.5877    0.0000 C   0  0  0  0  0  0  0  0  0  0  0  0
    0.7500    1.0104    0.0000 C   0  0  0  0  0  0  0  0  0  0  0  0
    0.0000    2.3094    0.0000 O   0  0  0  0  0  0  0  0  0  0  0  0
    2.2500    1.0104    0.0000 O   0  0  0  0  0  0  0  0  0  0  0  0
  1  2  1  0
  3  2  1  6
  3  4  1  0
  4  5  1  0
  4  6  1  0
  3  7  1  0
  7  8  2  0
  7  9  1  0
M  END
>  <rName>  (182) 
NMe2Ser

>  <PQ_SYMBOL>  (182) 
NMe2Ser

>  <FULL_NAME>  (182) 
methyl N-Methyl-Serine

>  <IUPAC_CONDENSED>  (182) 
N(Me2)Ser

>  <IUPAC>  (182) 
(2S)-2-(dimethylamino)-3-hydroxypropanoic acid

>  <TYPE>  (182) 
N-term cap

>  <CLASS>  (182) 
n_cap

>  <ANALOG>  (182) 
X

>  <MOL_WT>  (182) 
133.147

>  <LOGP>  (182) 
-1.0064999999999995

>  <TPSA>  (182) 
60.769999999999996

>  <POPULARITY>  (182) 
12.1

>  <PROTECTED>  (182) 
TRUE

>  <SMILES>  (182) 
OC[C@H](N(C)C)C(=O)O

>  <INCHIKEY>  (182) 
UHOZUUWRLMQQBZ-BYPYZUCNSA-N

$$$$
2Ph-benzimidazol-1-acetyl
     RDKit          2D

 19 21  0  0  0  0  0  0  0  0999 V2000
   -5.1445    0.0752    0.0000 C   0  0  0  0  0  0  0  0  0  0  0  0
   -4.5826    1.4660    0.0000 C   0  0  0  0  0  0  0  0  0  0  0  0
   -3.0972    1.6748    0.0000 C   0  0  0  0  0  0  0  0  0  0  0  0
   -2.1737    0.4927    0.0000 C   0  0  0  0  0  0  0  0  0  0  0  0
   -2.7356   -0.8980    0.0000 C   0  0  0  0  0  0  0  0  0  0  0  0
   -4.2210   -1.1068    0.0000 C   0  0  0  0  0  0  0  0  0  0  0  0
   -0.6883    0.7015    0.0000 C   0  0  0  0  0  0  0  0  0  0  0  0
    0.3537   -0.3775    0.0000 N   0  0  0  0  0  0  0  0  0  0  0  0
    1.7019    0.2801    0.0000 C   0  0  0  0  0  0  0  0  0  0  0  0
    3.0927   -0.2818    0.0000 C   0  0  0  0  0  0  0  0  0  0  0  0
    4.2747    0.6417    0.0000 C   0  0  0  0  0  0  0  0  0  0  0  0
    4.0659    2.1271    0.0000 C   0  0  0  0  0  0  0  0  0  0  0  0
    2.6751    2.6890    0.0000 C   0  0  0  0  0  0  0  0  0  0  0  0
    1.4931    1.7655    0.0000 C   0  0  0  0  0  0  0  0  0  0  0  0
    0.0159    2.0260    0.0000 N   0  0  0  0  0  0  0  0  0  0  0  0
    0.0933   -1.8547    0.0000 C   0  0  0  0  0  0  0  0  0  0  0  0
    1.2424   -2.8189    0.0000 C   0  0  0  0  0  0  0  0  0  0  0  0
    2.6519   -2.3058    0.0000 O   0  0  0  0  0  0  0  0  0  0  0  0
    0.9819   -4.2961    0.0000 O   0  0  0  0  0  0  0  0  0  0  0  0
  1  2  2  0
  2  3  1  0
  3  4  2  0
  4  5  1  0
  5  6  2  0
  4  7  1  0
  7  8  1  0
  8  9  1  0
  9 10  2  0
 10 11  1  0
 11 12  2  0
 12 13  1  0
 13 14  2  0
 14 15  1  0
  8 16  1  0
 16 17  1  0
 17 18  2  0
 17 19  1  0
 14  9  1  0
 15  7  2  0
  6  1  1  0
M  END
>  <rName>  (183) 
2Ph-benzimidazol-1-acetyl

>  <PQ_SYMBOL>  (183) 
2Ph-benzimidazol-1-acetyl

>  <FULL_NAME>  (183) 
2-(2-phenylbenzimidazol-1-yl)acetic acid

>  <IUPAC_CONDENSED>  (183) 
2Ph-benzimidazol-1-acetyl

>  <IUPAC>  (183) 
2-(2-phenyl-1H-benzimidazol-1-yl)acetic acid

>  <TYPE>  (183) 
N-term cap

>  <CLASS>  (183) 
n_cap

>  <ANALOG>  (183) 
X

>  <MOL_WT>  (183) 
252.27299999999997

>  <LOGP>  (183) 
2.7878999999999996

>  <TPSA>  (183) 
55.120000000000005

>  <POPULARITY>  (183) 
8.3

>  <PROTECTED>  (183) 
TRUE

>  <SMILES>  (183) 
c3ccc(cc3)c2n(c1(ccccc1n2))CC(=O)O

>  <INCHIKEY>  (183) 
YIZCZAATUVLJSG-UHFFFAOYSA-N

$$$$
-D-Met_O2
     RDKit          2D

 11 10  0  0  0  0  0  0  0  0999 V2000
    1.5275   -1.9644    0.0000 N   0  0  0  0  0  0  0  0  0  0  0  0
    1.4450   -0.4666    0.0000 C   0  0  0  0  0  0  0  0  0  0  0  0
    2.7008    0.3537    0.0000 C   0  0  0  0  0  0  0  0  0  0  0  0
    2.6183    1.8514    0.0000 O   0  0  0  0  0  0  0  0  0  0  0  0
    4.0391   -0.3237    0.0000 O   0  0  0  0  0  0  0  0  0  0  0  0
    0.1067    0.2107    0.0000 C   0  0  0  0  0  0  0  0  0  0  0  0
   -1.1491   -0.6096    0.0000 C   0  0  0  0  0  0  0  0  0  0  0  0
   -2.4875    0.0678    0.0000 S   0  0  0  0  0  0  0  0  0  0  0  0
   -3.1649   -1.2706    0.0000 O   0  0  0  0  0  0  0  0  0  0  0  0
   -3.8258    0.7452    0.0000 C   0  0  0  0  0  0  0  0  0  0  0  0
   -1.8101    1.4061    0.0000 O   0  0  0  0  0  0  0  0  0  0  0  0
  2  1  1  6
  2  3  1  0
  3  4  2  0
  3  5  1  0
  2  6  1  0
  6  7  1  0
  7  8  1  0
  8  9  2  0
  8 10  1  0
  8 11  2  0
M  END
>  <rName>  (184) 
-D-Met_O2

>  <PQ_SYMBOL>  (184) 
-D-Met_O2

>  <FULL_NAME>  (184) 
(2R)-2-amino-4-methylsulfonylbutanoic acid

>  <IUPAC_CONDENSED>  (184) 
D-Met(O2)

>  <IUPAC>  (184) 
(2R)-2-amino-4-(methylsulfonyl)butanoic acid

>  <TYPE>  (184) 
C-term cap

>  <CLASS>  (184) 
c_cap

>  <ANALOG>  (184) 
X

>  <MOL_WT>  (184) 
181.213

>  <LOGP>  (184) 
-1.1670000000000005

>  <TPSA>  (184) 
97.46000000000001

>  <POPULARITY>  (184) 
8

>  <PROTECTED>  (184) 
TRUE

>  <SMILES>  (184) 
N[C@@H](C(=O)O)CCS(=O)(C)=O

>  <INCHIKEY>  (184) 
UCUNFLYVYCGDHP-SCSAIBSYSA-N

$$$$
D-Phe_4BO2
     RDKit          2D

 15 15  0  0  0  0  0  0  0  0999 V2000
   -2.2547    1.6872    0.0000 N   0  0  0  0  0  0  0  0  0  0  0  0
   -2.7489    0.2709    0.0000 C   0  0  0  0  0  0  0  0  0  0  0  0
   -4.2225   -0.0091    0.0000 C   0  0  0  0  0  0  0  0  0  0  0  0
   -4.7168   -1.4254    0.0000 O   0  0  0  0  0  0  0  0  0  0  0  0
   -5.2019    1.1270    0.0000 O   0  0  0  0  0  0  0  0  0  0  0  0
   -1.7696   -0.8652    0.0000 C   0  0  0  0  0  0  0  0  0  0  0  0
   -0.2959   -0.5852    0.0000 C   0  0  0  0  0  0  0  0  0  0  0  0
    0.1983    0.8311    0.0000 C   0  0  0  0  0  0  0  0  0  0  0  0
    1.6719    1.1111    0.0000 C   0  0  0  0  0  0  0  0  0  0  0  0
    2.6513   -0.0250    0.0000 C   0  0  0  0  0  0  0  0  0  0  0  0
    2.1570   -1.4413    0.0000 C   0  0  0  0  0  0  0  0  0  0  0  0
    0.6834   -1.7213    0.0000 C   0  0  0  0  0  0  0  0  0  0  0  0
    4.1249    0.2550    0.0000 B   0  0  0  0  0  0  0  0  0  0  0  0
    5.1043   -0.8811    0.0000 O   0  0  0  0  0  0  0  0  0  0  0  0
    4.6192    1.6713    0.0000 O   0  0  0  0  0  0  0  0  0  0  0  0
  2  1  1  6
  2  3  1  0
  3  4  2  0
  3  5  1  0
  2  6  1  0
  6  7  1  0
  7  8  1  0
  8  9  2  0
  9 10  1  0
 10 11  2  0
 11 12  1  0
 10 13  1  0
 13 14  1  0
 13 15  1  0
 12  7  2  0
M  END
>  <rName>  (185) 
D-Phe_4BO2

>  <PQ_SYMBOL>  (185) 
D-Phe_4BO2

>  <FULL_NAME>  (185) 
(2R)-2-amino-3-(4-boronophenyl)propanoic acid

>  <IUPAC_CONDENSED>  (185) 
D-Phe(4-BO2)

>  <IUPAC>  (185) 
(2R)-2-amino-3-(4-(dihydroxyboryl)phenyl)propanoic acid

>  <TYPE>  (185) 
C-term cap

>  <CLASS>  (185) 
c_cap

>  <ANALOG>  (185) 
X

>  <MOL_WT>  (185) 
209.01000000000002

>  <LOGP>  (185) 
-1.6792000000000002

>  <TPSA>  (185) 
103.78000000000002

>  <POPULARITY>  (185) 
5.6

>  <PROTECTED>  (185) 
TRUE

>  <SMILES>  (185) 
N[C@@H](C(=O)O)Cc1ccc(cc1)B(O)O

>  <INCHIKEY>  (185) 
NFIVJOSXJDORSP-MRVPVSSYSA-N

$$$$
Tyr-OMe
     RDKit          2D

 14 14  0  0  0  0  0  0  0  0999 V2000
   -1.1981    1.6034    0.0000 N   0  0  0  0  0  0  0  0  0  0  0  0
   -1.5924    0.1561    0.0000 C   0  0  0  0  0  0  0  0  0  0  0  0
   -3.0428   -0.2261    0.0000 C   0  0  0  0  0  0  0  0  0  0  0  0
   -3.4370   -1.6734    0.0000 O   0  0  0  0  0  0  0  0  0  0  0  0
   -4.0991    0.8389    0.0000 O   0  0  0  0  0  0  0  0  0  0  0  0
   -5.5496    0.4566    0.0000 C   0  0  0  0  0  0  0  0  0  0  0  0
   -0.5361   -0.9089    0.0000 C   0  0  0  0  0  0  0  0  0  0  0  0
    0.9144   -0.5267    0.0000 C   0  0  0  0  0  0  0  0  0  0  0  0
    1.3086    0.9206    0.0000 C   0  0  0  0  0  0  0  0  0  0  0  0
    2.7591    1.3028    0.0000 C   0  0  0  0  0  0  0  0  0  0  0  0
    3.8154    0.2378    0.0000 C   0  0  0  0  0  0  0  0  0  0  0  0
    3.4212   -1.2095    0.0000 C   0  0  0  0  0  0  0  0  0  0  0  0
    1.9707   -1.5917    0.0000 C   0  0  0  0  0  0  0  0  0  0  0  0
    5.2658    0.6201    0.0000 O   0  0  0  0  0  0  0  0  0  0  0  0
  2  1  1  1
  2  3  1  0
  3  4  2  0
  3  5  1  0
  5  6  1  0
  2  7  1  0
  7  8  1  0
  8  9  1  0
  9 10  2  0
 10 11  1  0
 11 12  2  0
 12 13  1  0
 11 14  1  0
 13  8  2  0
M  END
>  <rName>  (186) 
Tyr-OMe

>  <PQ_SYMBOL>  (186) 
Tyr-OMe

>  <FULL_NAME>  (186) 
Tyrosine methyl ester

>  <IUPAC_CONDENSED>  (186) 
Tyr-OMe

>  <IUPAC>  (186) 
methyl (2S)-2-amino-3-(4-hydroxyphenyl)propanoate

>  <TYPE>  (186) 
C-term cap

>  <CLASS>  (186) 
c_cap

>  <ANALOG>  (186) 
X

>  <MOL_WT>  (186) 
195.21800000000002

>  <LOGP>  (186) 
0.43499999999999944

>  <TPSA>  (186) 
72.55000000000001

>  <POPULARITY>  (186) 
16.2

>  <PROTECTED>  (186) 
TRUE

>  <SMILES>  (186) 
N[C@H](C(=O)OC)Cc1ccc(cc1)O

>  <INCHIKEY>  (186) 
MWZPENIJLUWBSY-VIFPVBQESA-N

$$$$
D-Glu_OBn
     RDKit          2D

 17 17  0  0  0  0  0  0  0  0999 V2000
   -4.0665    2.0731    0.0000 N   0  0  0  0  0  0  0  0  0  0  0  0
   -4.2402    0.5832    0.0000 C   0  0  0  0  0  0  0  0  0  0  0  0
   -3.0367   -0.3122    0.0000 C   0  0  0  0  0  0  0  0  0  0  0  0
   -1.6596    0.2823    0.0000 C   0  0  0  0  0  0  0  0  0  0  0  0
   -0.4561   -0.6131    0.0000 C   0  0  0  0  0  0  0  0  0  0  0  0
   -0.6299   -2.1030    0.0000 O   0  0  0  0  0  0  0  0  0  0  0  0
    0.9210   -0.0186    0.0000 O   0  0  0  0  0  0  0  0  0  0  0  0
    2.1245   -0.9140    0.0000 C   0  0  0  0  0  0  0  0  0  0  0  0
    3.5016   -0.3194    0.0000 C   0  0  0  0  0  0  0  0  0  0  0  0
    3.6753    1.1705    0.0000 C   0  0  0  0  0  0  0  0  0  0  0  0
    5.0525    1.7650    0.0000 C   0  0  0  0  0  0  0  0  0  0  0  0
    6.2559    0.8696    0.0000 C   0  0  0  0  0  0  0  0  0  0  0  0
    6.0822   -0.6203    0.0000 C   0  0  0  0  0  0  0  0  0  0  0  0
    4.7050   -1.2148    0.0000 C   0  0  0  0  0  0  0  0  0  0  0  0
   -5.6173   -0.0113    0.0000 C   0  0  0  0  0  0  0  0  0  0  0  0
   -5.7910   -1.5012    0.0000 O   0  0  0  0  0  0  0  0  0  0  0  0
   -6.8208    0.8841    0.0000 O   0  0  0  0  0  0  0  0  0  0  0  0
  2  1  1  6
  2  3  1  0
  3  4  1  0
  4  5  1  0
  5  6  2  0
  5  7  1  0
  7  8  1  0
  8  9  1  0
  9 10  2  0
 10 11  1  0
 11 12  2  0
 12 13  1  0
 13 14  2  0
  2 15  1  0
 15 16  2  0
 15 17  1  0
 14  9  1  0
M  END
>  <rName>  (187) 
D-Glu_OBn

>  <PQ_SYMBOL>  (187) 
D-Glu_OBn

>  <FULL_NAME>  (187) 
D-Glutamic acid gamma-benzyl ester

>  <IUPAC_CONDENSED>  (187) 
D-Glu(OBn)

>  <IUPAC>  (187) 
(2R)-2-amino-4-(benzyloxycarbonyl)butanoic acid

>  <TYPE>  (187) 
N-term cap

>  <CLASS>  (187) 
n_cap

>  <ANALOG>  (187) 
X

>  <MOL_WT>  (187) 
237.25500000000002

>  <LOGP>  (187) 
0.9218999999999999

>  <TPSA>  (187) 
89.62000000000002

>  <POPULARITY>  (187) 
7.4

>  <PROTECTED>  (187) 
TRUE

>  <SMILES>  (187) 
N[C@H](CCC(=O)OCc1(ccccc1))C(=O)O

>  <INCHIKEY>  (187) 
BGGHCRNCRWQABU-SNVBAGLBSA-N

$$$$
Deg-OMe
     RDKit          2D

 10  9  0  0  0  0  0  0  0  0999 V2000
   -1.9772   -0.6104    0.0000 N   0  0  0  0  0  0  0  0  0  0  0  0
   -0.5745   -0.0788    0.0000 C   0  0  0  0  0  0  0  0  0  0  0  0
   -1.1061    1.3238    0.0000 C   0  0  0  0  0  0  0  0  0  0  0  0
   -2.5866    1.5648    0.0000 C   0  0  0  0  0  0  0  0  0  0  0  0
   -0.0430   -1.4815    0.0000 C   0  0  0  0  0  0  0  0  0  0  0  0
   -0.9920   -2.6431    0.0000 C   0  0  0  0  0  0  0  0  0  0  0  0
    0.8281    0.4527    0.0000 C   0  0  0  0  0  0  0  0  0  0  0  0
    1.0691    1.9333    0.0000 O   0  0  0  0  0  0  0  0  0  0  0  0
    1.9898   -0.4962    0.0000 O   0  0  0  0  0  0  0  0  0  0  0  0
    3.3924    0.0353    0.0000 C   0  0  0  0  0  0  0  0  0  0  0  0
  1  2  1  0
  2  3  1  0
  3  4  1  0
  2  5  1  0
  5  6  1  0
  2  7  1  0
  7  8  2  0
  7  9  1  0
  9 10  1  0
M  END
>  <rName>  (188) 
Deg-OMe

>  <PQ_SYMBOL>  (188) 
Deg-OMe

>  <FULL_NAME>  (188) 
methyl 2-amino-2-ethylbutanoate

>  <IUPAC_CONDENSED>  (188) 
Deg-OMe

>  <IUPAC>  (188) 
methyl 2-amino-2-ethylbutanoate

>  <TYPE>  (188) 
C-term cap

>  <CLASS>  (188) 
c_cap

>  <ANALOG>  (188) 
X

>  <MOL_WT>  (188) 
145.202

>  <LOGP>  (188) 
0.6768999999999998

>  <TPSA>  (188) 
52.32000000000001

>  <POPULARITY>  (188) 
12

>  <PROTECTED>  (188) 
TRUE

>  <SMILES>  (188) 
NC(CC)(CC)C(=O)OC

>  <INCHIKEY>  (188) 
JATPQYOJRYBVGT-UHFFFAOYSA-N

$$$$
Ac5c-OEt
     RDKit          2D

 11 11  0  0  0  0  0  0  0  0999 V2000
    0.0379   -1.5658    0.0000 N   0  0  0  0  0  0  0  0  0  0  0  0
   -0.8189   -0.3345    0.0000 C   0  0  0  0  0  0  0  0  0  0  0  0
   -1.4009    1.0479    0.0000 C   0  0  0  0  0  0  0  0  0  0  0  0
   -2.8956    0.9216    0.0000 C   0  0  0  0  0  0  0  0  0  0  0  0
   -3.2373   -0.5390    0.0000 C   0  0  0  0  0  0  0  0  0  0  0  0
   -1.9538   -1.3153    0.0000 C   0  0  0  0  0  0  0  0  0  0  0  0
    0.4952    0.3888    0.0000 C   0  0  0  0  0  0  0  0  0  0  0  0
    0.5258    1.8885    0.0000 O   0  0  0  0  0  0  0  0  0  0  0  0
    1.7787   -0.3875    0.0000 O   0  0  0  0  0  0  0  0  0  0  0  0
    3.0927    0.3358    0.0000 C   0  0  0  0  0  0  0  0  0  0  0  0
    4.3762   -0.4405    0.0000 C   0  0  0  0  0  0  0  0  0  0  0  0
  1  2  1  0
  2  3  1  0
  3  4  1  0
  4  5  1  0
  5  6  1  0
  2  7  1  0
  7  8  2  0
  7  9  1  0
  9 10  1  0
 10 11  1  0
  6  2  1  0
M  END
>  <rName>  (189) 
Ac5c-OEt

>  <PQ_SYMBOL>  (189) 
Ac5c-OEt

>  <FULL_NAME>  (189) 
ethyl 1-aminocyclopentane-1-carboxylate

>  <IUPAC_CONDENSED>  (189) 
Ac5c-OEt

>  <IUPAC>  (189) 
ethyl 1-aminocyclopentanecarboxylate

>  <TYPE>  (189) 
C-term cap

>  <CLASS>  (189) 
c_cap

>  <ANALOG>  (189) 
X

>  <MOL_WT>  (189) 
157.213

>  <LOGP>  (189) 
0.821

>  <TPSA>  (189) 
52.32000000000001

>  <POPULARITY>  (189) 
7.5

>  <PROTECTED>  (189) 
TRUE

>  <SMILES>  (189) 
NC1(CCCC1)C(=O)OCC

>  <INCHIKEY>  (189) 
NLLGKNYQDQBMFW-UHFFFAOYSA-N

$$$$
uracil-6-carbonyl
     RDKit          2D

 11 11  0  0  0  0  0  0  0  0999 V2000
    2.1818    0.0000    0.0000 N   0  0  0  0  0  0  0  0  0  0  0  0
    1.4318   -1.2990    0.0000 C   0  0  0  0  0  0  0  0  0  0  0  0
    2.1818   -2.5981    0.0000 O   0  0  0  0  0  0  0  0  0  0  0  0
   -0.0682   -1.2990    0.0000 C   0  0  0  0  0  0  0  0  0  0  0  0
   -0.8182    0.0000    0.0000 C   0  0  0  0  0  0  0  0  0  0  0  0
   -0.0682    1.2990    0.0000 N   0  0  0  0  0  0  0  0  0  0  0  0
    1.4318    1.2990    0.0000 C   0  0  0  0  0  0  0  0  0  0  0  0
    2.1818    2.5981    0.0000 O   0  0  0  0  0  0  0  0  0  0  0  0
   -2.3182    0.0000    0.0000 C   0  0  0  0  0  0  0  0  0  0  0  0
   -3.0682   -1.2990    0.0000 O   0  0  0  0  0  0  0  0  0  0  0  0
   -3.0682    1.2990    0.0000 O   0  0  0  0  0  0  0  0  0  0  0  0
  1  2  1  0
  2  3  2  0
  2  4  1  0
  4  5  2  0
  5  6  1  0
  6  7  1  0
  7  8  2  0
  5  9  1  0
  9 10  2  0
  9 11  1  0
  7  1  1  0
M  END
>  <rName>  (190) 
uracil-6-carbonyl

>  <PQ_SYMBOL>  (190) 
uracil-6-carbonyl

>  <FULL_NAME>  (190) 
2,4-dioxo-1H-pyrimidine-6-carboxylic acid

>  <IUPAC_CONDENSED>  (190) 
uracil-6-carbonyl

>  <IUPAC>  (190) 
2,6-dioxo-1,3-diazacyclohex-4-ene-4-carboxylic acid

>  <TYPE>  (190) 
N-term cap

>  <CLASS>  (190) 
n_cap

>  <ANALOG>  (190) 
X

>  <MOL_WT>  (190) 
156.097

>  <LOGP>  (190) 
-1.2386000000000001

>  <TPSA>  (190) 
103.02

>  <POPULARITY>  (190) 
11.4

>  <PROTECTED>  (190) 
TRUE

>  <SMILES>  (190) 
[nH]1c(=O)cc([nH]c1=O)C(=O)O

>  <INCHIKEY>  (190) 
PXQPEWDEAKTCGB-UHFFFAOYSA-N

$$$$
Asn_iPr_For
     RDKit          2D

 14 14  0  0  0  0  0  0  0  0999 V2000
    3.5357   -1.2990    0.0000 C   0  0  0  0  0  0  0  0  0  0  0  0
    2.7857    0.0000    0.0000 C   0  0  0  0  0  0  0  0  0  0  0  0
    3.5357    1.2990    0.0000 C   0  0  0  0  0  0  0  0  0  0  0  0
    1.2857    0.0000    0.0000 N   0  0  0  0  0  0  0  0  0  0  0  0
    0.5357   -1.2990    0.0000 C   0  0  0  0  0  0  0  0  0  0  0  0
    1.2857   -2.5981    0.0000 O   0  0  0  0  0  0  0  0  0  0  0  0
   -0.9643   -1.2990    0.0000 C   0  0  0  0  0  0  0  0  0  0  0  0
   -1.7143    0.0000    0.0000 C   0  0  0  0  0  0  0  0  0  0  0  0
   -0.9643    1.2990    0.0000 N   0  0  0  0  0  0  0  0  0  0  0  0
    0.5357    1.2990    0.0000 C   0  0  0  0  0  0  0  0  0  0  0  0
    1.2857    2.5981    0.0000 O   0  0  0  0  0  0  0  0  0  0  0  0
   -3.2143    0.0000    0.0000 C   0  0  0  0  0  0  0  0  0  0  0  0
   -3.9643   -1.2990    0.0000 O   0  0  0  0  0  0  0  0  0  0  0  0
   -3.9643    1.2990    0.0000 O   0  0  0  0  0  0  0  0  0  0  0  0
  1  2  1  0
  2  3  1  0
  2  4  1  0
  4  5  1  0
  5  6  2  0
  5  7  1  0
  7  8  1  0
  8  9  1  0
  9 10  1  0
 10 11  2  0
  8 12  1  1
 12 13  2  0
 12 14  1  0
 10  4  1  0
M  END
>  <rName>  (191) 
Asn_iPr_For

>  <PQ_SYMBOL>  (191) 
Asn_iPr_For

>  <FULL_NAME>  (191) 
(4S)-2,6-dioxo-1-propan-2-yl-1,3-diazinane-4-carboxylic acid

>  <IUPAC_CONDENSED>  (191) 
Asn(iPr,For)

>  <IUPAC>  (191) 
(4S)-2,6-dioxo-1-(propan-2-yl)-1,3-diazacyclohexane-4-carboxylic acid

>  <TYPE>  (191) 
N-term cap

>  <CLASS>  (191) 
n_cap

>  <ANALOG>  (191) 
X

>  <MOL_WT>  (191) 
200.194

>  <LOGP>  (191) 
-0.21010000000000023

>  <TPSA>  (191) 
86.71000000000001

>  <POPULARITY>  (191) 
5.2

>  <PROTECTED>  (191) 
TRUE

>  <SMILES>  (191) 
CC(C)N1C(=O)C[C@H](NC1=O)C(=O)O

>  <INCHIKEY>  (191) 
QMDDCUJEBOIACT-YFKPBYRVSA-N

$$$$
NMe2Thr
     RDKit          2D

 10  9  0  0  0  0  0  0  0  0999 V2000
   -1.2990    2.2500    0.0000 O   0  0  0  0  0  0  0  0  0  0  0  0
   -1.2990    0.7500    0.0000 C   0  0  0  0  0  0  0  0  0  0  0  0
   -2.5981    0.0000    0.0000 C   0  0  0  0  0  0  0  0  0  0  0  0
    0.0000   -0.0000    0.0000 C   0  0  0  0  0  0  0  0  0  0  0  0
    0.0000   -1.5000    0.0000 N   0  0  0  0  0  0  0  0  0  0  0  0
    1.2990   -2.2500    0.0000 C   0  0  0  0  0  0  0  0  0  0  0  0
   -1.2990   -2.2500    0.0000 C   0  0  0  0  0  0  0  0  0  0  0  0
    1.2990    0.7500    0.0000 C   0  0  0  0  0  0  0  0  0  0  0  0
    1.2990    2.2500    0.0000 O   0  0  0  0  0  0  0  0  0  0  0  0
    2.5981   -0.0000    0.0000 O   0  0  0  0  0  0  0  0  0  0  0  0
  1  2  1  0
  2  3  1  1
  2  4  1  0
  4  5  1  1
  5  6  1  0
  5  7  1  0
  4  8  1  0
  8  9  2  0
  8 10  1  0
M  END
>  <rName>  (192) 
NMe2Thr

>  <PQ_SYMBOL>  (192) 
NMe2Thr

>  <FULL_NAME>  (192) 
methyl N-Methyl-Threonine

>  <IUPAC_CONDENSED>  (192) 
N(Me2)Thr

>  <IUPAC>  (192) 
(2S,3R)-2-(dimethylamino)-3-hydroxybutanoic acid

>  <TYPE>  (192) 
N-term cap

>  <CLASS>  (192) 
n_cap

>  <ANALOG>  (192) 
X

>  <MOL_WT>  (192) 
147.174

>  <LOGP>  (192) 
-0.6179999999999997

>  <TPSA>  (192) 
60.769999999999996

>  <POPULARITY>  (192) 
14.9

>  <PROTECTED>  (192) 
FALSE

>  <SMILES>  (192) 
O[C@H](C)[C@H](N(C)C)C(=O)O

>  <INCHIKEY>  (192) 
CIVVRPHZRYVSCF-UHNVWZDZSA-N

$$$$
CO2cPent-Val_2Me
     RDKit          2D

 17 17  0  0  0  0  0  0  0  0999 V2000
   -4.8529   -1.0466    0.0000 C   0  0  0  0  0  0  0  0  0  0  0  0
   -3.3634   -0.8695    0.0000 C   0  0  0  0  0  0  0  0  0  0  0  0
   -3.0716    0.6019    0.0000 C   0  0  0  0  0  0  0  0  0  0  0  0
   -4.3808    1.3341    0.0000 C   0  0  0  0  0  0  0  0  0  0  0  0
   -5.4817    0.3153    0.0000 C   0  0  0  0  0  0  0  0  0  0  0  0
   -1.7097    1.2306    0.0000 O   0  0  0  0  0  0  0  0  0  0  0  0
   -0.4843    0.3656    0.0000 C   0  0  0  0  0  0  0  0  0  0  0  0
   -0.6207   -1.1282    0.0000 O   0  0  0  0  0  0  0  0  0  0  0  0
    0.8776    0.9943    0.0000 N   0  0  0  0  0  0  0  0  0  0  0  0
    2.1030    0.1293    0.0000 C   0  0  0  0  0  0  0  0  0  0  0  0
    3.4649    0.7580    0.0000 C   0  0  0  0  0  0  0  0  0  0  0  0
    4.0936   -0.6039    0.0000 C   0  0  0  0  0  0  0  0  0  0  0  0
    2.8361    2.1199    0.0000 C   0  0  0  0  0  0  0  0  0  0  0  0
    4.8267    1.3867    0.0000 C   0  0  0  0  0  0  0  0  0  0  0  0
    1.9666   -1.3645    0.0000 C   0  0  0  0  0  0  0  0  0  0  0  0
    0.6047   -1.9933    0.0000 O   0  0  0  0  0  0  0  0  0  0  0  0
    3.1920   -2.2296    0.0000 O   0  0  0  0  0  0  0  0  0  0  0  0
  1  2  1  0
  2  3  1  0
  3  4  1  0
  4  5  1  0
  3  6  1  0
  6  7  1  0
  7  8  2  0
  7  9  1  0
 10  9  1  1
 10 11  1  0
 11 12  1  0
 11 13  1  0
 11 14  1  0
 10 15  1  0
 15 16  2  0
 15 17  1  0
  5  1  1  0
M  END
>  <rName>  (193) 
CO2cPent-Val_2Me

>  <PQ_SYMBOL>  (193) 
CO2cPent-Val_2Me

>  <FULL_NAME>  (193) 
(2S)-2-(cyclopentyloxycarbonylamino)-3,3-dimethylbutanoic acid

>  <IUPAC_CONDENSED>  (193) 
CO2cPent-Val(2-Me)

>  <IUPAC>  (193) 
(2S)-2-cyclopentyloxycarbonylamino-3,3-dimethylbutanoic acid

>  <TYPE>  (193) 
N-term cap

>  <CLASS>  (193) 
n_cap

>  <ANALOG>  (193) 
X

>  <MOL_WT>  (193) 
243.303

>  <LOGP>  (193) 
2.1545

>  <TPSA>  (193) 
75.63

>  <POPULARITY>  (193) 
15.2

>  <PROTECTED>  (193) 
TRUE

>  <SMILES>  (193) 
C1CC(CC1)OC(=O)N[C@@H](C(C)(C)C)C(=O)O

>  <INCHIKEY>  (193) 
VKOXJCPQUQBCAJ-SECBINFHSA-N

$$$$
NMe-Tic
     RDKit          2D

 14 15  0  0  0  0  0  0  0  0999 V2000
    3.9235   -0.3387    0.0000 C   0  0  0  0  0  0  0  0  0  0  0  0
    2.7752   -1.3038    0.0000 C   0  0  0  0  0  0  0  0  0  0  0  0
    1.3653   -0.7919    0.0000 C   0  0  0  0  0  0  0  0  0  0  0  0
    0.2170   -1.7569    0.0000 C   0  0  0  0  0  0  0  0  0  0  0  0
   -1.1930   -1.2450    0.0000 N   0  0  0  0  0  0  0  0  0  0  0  0
   -2.3413   -2.2101    0.0000 C   0  0  0  0  0  0  0  0  0  0  0  0
   -1.4546    0.2320    0.0000 C   0  0  0  0  0  0  0  0  0  0  0  0
   -0.3063    1.1971    0.0000 C   0  0  0  0  0  0  0  0  0  0  0  0
    1.1037    0.6851    0.0000 C   0  0  0  0  0  0  0  0  0  0  0  0
    2.2520    1.6502    0.0000 C   0  0  0  0  0  0  0  0  0  0  0  0
    3.6619    1.1383    0.0000 C   0  0  0  0  0  0  0  0  0  0  0  0
   -2.8645    0.7439    0.0000 C   0  0  0  0  0  0  0  0  0  0  0  0
   -4.0128   -0.2211    0.0000 O   0  0  0  0  0  0  0  0  0  0  0  0
   -3.1261    2.2209    0.0000 O   0  0  0  0  0  0  0  0  0  0  0  0
  1  2  1  0
  2  3  2  0
  3  4  1  0
  4  5  1  0
  5  6  1  0
  5  7  1  0
  7  8  1  0
  8  9  1  0
  9 10  2  0
 10 11  1  0
  7 12  1  6
 12 13  2  0
 12 14  1  0
  9  3  1  0
 11  1  2  0
M  END
>  <rName>  (194) 
NMe-Tic

>  <PQ_SYMBOL>  (194) 
NMe-Tic

>  <FULL_NAME>  (194) 
methyl 1,2,3,4-tetrahydro-3-isoquinolinecarboxylic acid

>  <IUPAC_CONDENSED>  (194) 
Me-Tic

>  <IUPAC>  (194) 
(4S)-3-methyl-3-azabicyclo[4.4.0]deca-1(6),7,9-triene-4-carboxylic acid

>  <TYPE>  (194) 
N-term cap

>  <CLASS>  (194) 
n_cap

>  <ANALOG>  (194) 
X

>  <MOL_WT>  (194) 
191.23

>  <LOGP>  (194) 
1.1277

>  <TPSA>  (194) 
40.540000000000006

>  <POPULARITY>  (194) 
13.6

>  <PROTECTED>  (194) 
TRUE

>  <SMILES>  (194) 
c2cc1CN(C)[C@@H](Cc1cc2)C(=O)O

>  <INCHIKEY>  (194) 
SKFOSDNQLGCEHM-JTQLQIEISA-N

$$$$
Val-OBn
     RDKit          2D

 15 15  0  0  0  0  0  0  0  0999 V2000
   -2.5285    2.0436    0.0000 N   0  0  0  0  0  0  0  0  0  0  0  0
   -2.8012    0.5686    0.0000 C   0  0  0  0  0  0  0  0  0  0  0  0
   -4.2149    0.0672    0.0000 C   0  0  0  0  0  0  0  0  0  0  0  0
   -5.3560    1.0409    0.0000 C   0  0  0  0  0  0  0  0  0  0  0  0
   -4.4876   -1.4078    0.0000 C   0  0  0  0  0  0  0  0  0  0  0  0
   -1.6601   -0.4050    0.0000 C   0  0  0  0  0  0  0  0  0  0  0  0
   -1.9328   -1.8800    0.0000 O   0  0  0  0  0  0  0  0  0  0  0  0
   -0.2464    0.0964    0.0000 O   0  0  0  0  0  0  0  0  0  0  0  0
    0.8947   -0.8772    0.0000 C   0  0  0  0  0  0  0  0  0  0  0  0
    2.3084   -0.3758    0.0000 C   0  0  0  0  0  0  0  0  0  0  0  0
    2.5811    1.0992    0.0000 C   0  0  0  0  0  0  0  0  0  0  0  0
    3.9948    1.6006    0.0000 C   0  0  0  0  0  0  0  0  0  0  0  0
    5.1359    0.6269    0.0000 C   0  0  0  0  0  0  0  0  0  0  0  0
    4.8632   -0.8481    0.0000 C   0  0  0  0  0  0  0  0  0  0  0  0
    3.4495   -1.3495    0.0000 C   0  0  0  0  0  0  0  0  0  0  0  0
  2  1  1  6
  2  3  1  0
  3  4  1  0
  3  5  1  0
  2  6  1  0
  6  7  2  0
  6  8  1  0
  8  9  1  0
  9 10  1  0
 10 11  2  0
 11 12  1  0
 12 13  2  0
 13 14  1  0
 14 15  2  0
 15 10  1  0
M  END
>  <rName>  (195) 
Val-OBn

>  <PQ_SYMBOL>  (195) 
Val-OBn

>  <FULL_NAME>  (195) 
Valine benzyl ester

>  <IUPAC_CONDENSED>  (195) 
Val-OBn

>  <IUPAC>  (195) 
benzyl (2S)-2-amino-3-methylbutanoate

>  <TYPE>  (195) 
C-term cap

>  <CLASS>  (195) 
c_cap

>  <ANALOG>  (195) 
X

>  <MOL_WT>  (195) 
207.273

>  <LOGP>  (195) 
1.7130999999999998

>  <TPSA>  (195) 
52.32000000000001

>  <POPULARITY>  (195) 
9.8

>  <PROTECTED>  (195) 
TRUE

>  <SMILES>  (195) 
N[C@@H](C(C)C)C(=O)OCc1ccccc1

>  <INCHIKEY>  (195) 
YIRBOOICRQFSOK-NSHDSACASA-N

$$$$
Dip-OMe
     RDKit          2D

 19 20  0  0  0  0  0  0  0  0999 V2000
    0.1626   -2.8767    0.0000 N   0  0  0  0  0  0  0  0  0  0  0  0
   -0.5536   -1.5587    0.0000 C   0  0  0  0  0  0  0  0  0  0  0  0
   -2.0531   -1.5200    0.0000 C   0  0  0  0  0  0  0  0  0  0  0  0
   -2.7693   -0.2020    0.0000 O   0  0  0  0  0  0  0  0  0  0  0  0
   -2.8364   -2.7992    0.0000 O   0  0  0  0  0  0  0  0  0  0  0  0
   -4.3359   -2.7605    0.0000 C   0  0  0  0  0  0  0  0  0  0  0  0
    0.2297   -0.2795    0.0000 C   0  0  0  0  0  0  0  0  0  0  0  0
    1.7292   -0.3182    0.0000 C   0  0  0  0  0  0  0  0  0  0  0  0
    2.4454   -1.6362    0.0000 C   0  0  0  0  0  0  0  0  0  0  0  0
    3.9449   -1.6750    0.0000 C   0  0  0  0  0  0  0  0  0  0  0  0
    4.7282   -0.3957    0.0000 C   0  0  0  0  0  0  0  0  0  0  0  0
    4.0120    0.9223    0.0000 C   0  0  0  0  0  0  0  0  0  0  0  0
    2.5125    0.9610    0.0000 C   0  0  0  0  0  0  0  0  0  0  0  0
   -0.4865    1.0385    0.0000 C   0  0  0  0  0  0  0  0  0  0  0  0
    0.2968    2.3177    0.0000 C   0  0  0  0  0  0  0  0  0  0  0  0
   -0.4194    3.6357    0.0000 C   0  0  0  0  0  0  0  0  0  0  0  0
   -1.9189    3.6744    0.0000 C   0  0  0  0  0  0  0  0  0  0  0  0
   -2.7022    2.3952    0.0000 C   0  0  0  0  0  0  0  0  0  0  0  0
   -1.9860    1.0772    0.0000 C   0  0  0  0  0  0  0  0  0  0  0  0
  2  1  1  6
  2  3  1  0
  3  4  2  0
  3  5  1  0
  5  6  1  0
  2  7  1  0
  7  8  1  0
  8  9  2  0
  9 10  1  0
 10 11  2  0
 11 12  1  0
 12 13  2  0
  7 14  1  0
 14 15  2  0
 15 16  1  0
 16 17  2  0
 17 18  1  0
 18 19  2  0
 19 14  1  0
 13  8  1  0
M  END
>  <rName>  (196) 
Dip-OMe

>  <PQ_SYMBOL>  (196) 
Dip-OMe

>  <FULL_NAME>  (196) 
methyl (2S)-2-amino-3,3-diphenylpropanoate

>  <IUPAC_CONDENSED>  (196) 
Dip-OMe

>  <IUPAC>  (196) 
methyl (2S)-2-amino-3,3-diphenylpropanoate

>  <TYPE>  (196) 
C-term cap

>  <CLASS>  (196) 
c_cap

>  <ANALOG>  (196) 
X

>  <MOL_WT>  (196) 
255.31700000000004

>  <LOGP>  (196) 
2.3187999999999995

>  <TPSA>  (196) 
52.32000000000001

>  <POPULARITY>  (196) 
5.5

>  <PROTECTED>  (196) 
TRUE

>  <SMILES>  (196) 
N[C@H](C(=O)OC)C(c2(ccccc2))c1ccccc1

>  <INCHIKEY>  (196) 
JJIQQSXXWLDXNO-HNNXBMFYSA-N

$$$$
Val-al
     RDKit          2D

  7  6  0  0  0  0  0  0  0  0999 V2000
    0.5797    1.7367    0.0000 N   0  0  0  0  0  0  0  0  0  0  0  0
    0.2514    0.2730    0.0000 C   0  0  0  0  0  0  0  0  0  0  0  0
   -1.1803   -0.1745    0.0000 C   0  0  0  0  0  0  0  0  0  0  0  0
   -2.2837    0.8417    0.0000 C   0  0  0  0  0  0  0  0  0  0  0  0
   -1.5086   -1.6381    0.0000 C   0  0  0  0  0  0  0  0  0  0  0  0
    1.3548   -0.7431    0.0000 C   0  0  0  0  0  0  0  0  0  0  0  0
    2.7865   -0.2956    0.0000 O   0  0  0  0  0  0  0  0  0  0  0  0
  2  1  1  6
  2  3  1  0
  3  4  1  0
  3  5  1  0
  2  6  1  0
  6  7  2  0
M  END
>  <rName>  (197) 
Val-al

>  <PQ_SYMBOL>  (197) 
Val-al

>  <FULL_NAME>  (197) 
(2S)-2-amino-3-methylbutanal

>  <IUPAC_CONDENSED>  (197) 
Val-al

>  <IUPAC>  (197) 
(2S)-2-amino-3-methylbutanal

>  <TYPE>  (197) 
C-term cap

>  <CLASS>  (197) 
c_cap

>  <ANALOG>  (197) 
X

>  <MOL_WT>  (197) 
101.14899999999999

>  <LOGP>  (197) 
0.16859999999999986

>  <TPSA>  (197) 
43.09

>  <POPULARITY>  (197) 
23

>  <PROTECTED>  (197) 
TRUE

>  <SMILES>  (197) 
N[C@@H](C(C)C)C=O

>  <INCHIKEY>  (197) 
DVOFEOSDXAVUJD-RXMQYKEDSA-N

$$$$
D-hPhe-OEt
     RDKit          2D

 15 15  0  0  0  0  0  0  0  0999 V2000
   -1.6744   -2.0992    0.0000 N   0  0  0  0  0  0  0  0  0  0  0  0
   -1.4783   -0.6120    0.0000 C   0  0  0  0  0  0  0  0  0  0  0  0
   -2.6682    0.3013    0.0000 C   0  0  0  0  0  0  0  0  0  0  0  0
   -2.4721    1.7885    0.0000 O   0  0  0  0  0  0  0  0  0  0  0  0
   -4.0541   -0.2724    0.0000 O   0  0  0  0  0  0  0  0  0  0  0  0
   -5.2440    0.6409    0.0000 C   0  0  0  0  0  0  0  0  0  0  0  0
   -6.6299    0.0672    0.0000 C   0  0  0  0  0  0  0  0  0  0  0  0
   -0.0924   -0.0383    0.0000 C   0  0  0  0  0  0  0  0  0  0  0  0
    1.0975   -0.9516    0.0000 C   0  0  0  0  0  0  0  0  0  0  0  0
    2.4834   -0.3778    0.0000 C   0  0  0  0  0  0  0  0  0  0  0  0
    2.6795    1.1093    0.0000 C   0  0  0  0  0  0  0  0  0  0  0  0
    4.0654    1.6831    0.0000 C   0  0  0  0  0  0  0  0  0  0  0  0
    5.2552    0.7697    0.0000 C   0  0  0  0  0  0  0  0  0  0  0  0
    5.0592   -0.7174    0.0000 C   0  0  0  0  0  0  0  0  0  0  0  0
    3.6733   -1.2912    0.0000 C   0  0  0  0  0  0  0  0  0  0  0  0
  2  1  1  1
  2  3  1  0
  3  4  2  0
  3  5  1  0
  5  6  1  0
  6  7  1  0
  2  8  1  0
  8  9  1  0
  9 10  1  0
 10 11  2  0
 11 12  1  0
 12 13  2  0
 13 14  1  0
 14 15  2  0
 15 10  1  0
M  END
>  <rName>  (198) 
D-hPhe-OEt

>  <PQ_SYMBOL>  (198) 
D-hPhe-OEt

>  <FULL_NAME>  (198) 
ethyl (2R)-2-amino-4-phenylbutanoate

>  <IUPAC_CONDENSED>  (198) 
D-hPhe-OEt

>  <IUPAC>  (198) 
ethyl (2R)-2-amino-4-phenylbutanoate

>  <TYPE>  (198) 
C-term cap

>  <CLASS>  (198) 
c_cap

>  <ANALOG>  (198) 
X

>  <MOL_WT>  (198) 
207.27300000000002

>  <LOGP>  (198) 
1.5095999999999996

>  <TPSA>  (198) 
52.32000000000001

>  <POPULARITY>  (198) 
11.6

>  <PROTECTED>  (198) 
TRUE

>  <SMILES>  (198) 
N[C@@H](C(=O)OCC)CCc1ccccc1

>  <INCHIKEY>  (198) 
WFLQXECQLHZKMV-LLVKDONJSA-N

$$$$
1-oxoisoquinolin-2-acetyl
     RDKit          2D

 15 16  0  0  0  0  0  0  0  0999 V2000
    4.1765   -0.6687    0.0000 C   0  0  0  0  0  0  0  0  0  0  0  0
    2.9735   -1.5647    0.0000 C   0  0  0  0  0  0  0  0  0  0  0  0
    1.5960   -0.9709    0.0000 C   0  0  0  0  0  0  0  0  0  0  0  0
    0.3931   -1.8670    0.0000 C   0  0  0  0  0  0  0  0  0  0  0  0
   -0.9844   -1.2732    0.0000 C   0  0  0  0  0  0  0  0  0  0  0  0
   -1.1589    0.2167    0.0000 N   0  0  0  0  0  0  0  0  0  0  0  0
    0.0441    1.1127    0.0000 C   0  0  0  0  0  0  0  0  0  0  0  0
   -0.1304    2.6025    0.0000 O   0  0  0  0  0  0  0  0  0  0  0  0
    1.4215    0.5189    0.0000 C   0  0  0  0  0  0  0  0  0  0  0  0
    2.6245    1.4149    0.0000 C   0  0  0  0  0  0  0  0  0  0  0  0
    4.0020    0.8211    0.0000 C   0  0  0  0  0  0  0  0  0  0  0  0
   -2.5364    0.8105    0.0000 C   0  0  0  0  0  0  0  0  0  0  0  0
   -3.7393   -0.0856    0.0000 C   0  0  0  0  0  0  0  0  0  0  0  0
   -3.5648   -1.5754    0.0000 O   0  0  0  0  0  0  0  0  0  0  0  0
   -5.1168    0.5082    0.0000 O   0  0  0  0  0  0  0  0  0  0  0  0
  1  2  1  0
  2  3  2  0
  3  4  1  0
  4  5  2  0
  5  6  1  0
  6  7  1  0
  7  8  2  0
  7  9  1  0
  9 10  2  0
 10 11  1  0
  6 12  1  0
 12 13  1  0
 13 14  2  0
 13 15  1  0
  9  3  1  0
 11  1  2  0
M  END
>  <rName>  (199) 
1-oxoisoquinolin-2-acetyl

>  <PQ_SYMBOL>  (199) 
1-oxoisoquinolin-2-acetyl

>  <FULL_NAME>  (199) 
2-(1-oxoisoquinolin-2-yl)acetic acid

>  <IUPAC_CONDENSED>  (199) 
1-oxoisoquinolin-2-acetyl

>  <IUPAC>  (199) 
2-(2-oxo-3-azabicyclo[4.4.0]deca-1(6),4,7,9-tetraen-3-yl)acetic acid

>  <TYPE>  (199) 
N-term cap

>  <CLASS>  (199) 
n_cap

>  <ANALOG>  (199) 
X

>  <MOL_WT>  (199) 
203.19699999999997

>  <LOGP>  (199) 
1.0860999999999998

>  <TPSA>  (199) 
59.3

>  <POPULARITY>  (199) 
8.7

>  <PROTECTED>  (199) 
TRUE

>  <SMILES>  (199) 
c2cc1ccn(c(=O)c1cc2)CC(=O)O

>  <INCHIKEY>  (199) 
SMAQTXRPPCAWTK-UHFFFAOYSA-N

$$$$
D-Pro-OMe
     RDKit          2D

  9  9  0  0  0  0  0  0  0  0999 V2000
   -1.0828   -1.2444    0.0000 N   0  0  0  0  0  0  0  0  0  0  0  0
   -0.3918    0.0869    0.0000 C   0  0  0  0  0  0  0  0  0  0  0  0
   -1.4444    1.1555    0.0000 C   0  0  0  0  0  0  0  0  0  0  0  0
   -2.7860    0.4846    0.0000 C   0  0  0  0  0  0  0  0  0  0  0  0
   -2.5625   -0.9986    0.0000 C   0  0  0  0  0  0  0  0  0  0  0  0
    1.0915    0.3104    0.0000 C   0  0  0  0  0  0  0  0  0  0  0  0
    1.6396    1.7067    0.0000 O   0  0  0  0  0  0  0  0  0  0  0  0
    2.0267   -0.8624    0.0000 O   0  0  0  0  0  0  0  0  0  0  0  0
    3.5099   -0.6389    0.0000 C   0  0  0  0  0  0  0  0  0  0  0  0
  1  2  1  0
  2  3  1  0
  3  4  1  0
  4  5  1  0
  2  6  1  6
  6  7  2  0
  6  8  1  0
  8  9  1  0
  5  1  1  0
M  END
>  <rName>  (200) 
D-Pro-OMe

>  <PQ_SYMBOL>  (200) 
D-Pro-OMe

>  <FULL_NAME>  (200) 
D-Proline methyl ester

>  <IUPAC_CONDENSED>  (200) 
D-Pro-OMe

>  <IUPAC>  (200) 
methyl (2R)-pyrrolidine-2-carboxylate

>  <TYPE>  (200) 
C-term cap

>  <CLASS>  (200) 
c_cap

>  <ANALOG>  (200) 
X

>  <MOL_WT>  (200) 
129.159

>  <LOGP>  (200) 
-0.08860000000000023

>  <TPSA>  (200) 
38.33

>  <POPULARITY>  (200) 
14.5

>  <PROTECTED>  (200) 
TRUE

>  <SMILES>  (200) 
N1[C@H](CCC1)C(=O)OC

>  <INCHIKEY>  (200) 
BLWYXBNNBYXPPL-RXMQYKEDSA-N

$$$$
4Ph-1-oxophthalazin-2-acetyl
     RDKit          2D

 21 23  0  0  0  0  0  0  0  0999 V2000
    4.2739    2.5979    0.0000 C   0  0  0  0  0  0  0  0  0  0  0  0
    4.3448    1.0996    0.0000 C   0  0  0  0  0  0  0  0  0  0  0  0
    3.0827    0.2890    0.0000 C   0  0  0  0  0  0  0  0  0  0  0  0
    1.7497    0.9767    0.0000 C   0  0  0  0  0  0  0  0  0  0  0  0
    1.6787    2.4750    0.0000 C   0  0  0  0  0  0  0  0  0  0  0  0
    2.9408    3.2856    0.0000 C   0  0  0  0  0  0  0  0  0  0  0  0
    0.4876    0.1661    0.0000 C   0  0  0  0  0  0  0  0  0  0  0  0
   -0.8455    0.8538    0.0000 N   0  0  0  0  0  0  0  0  0  0  0  0
   -2.1076    0.0432    0.0000 N   0  0  0  0  0  0  0  0  0  0  0  0
   -2.0367   -1.4551    0.0000 C   0  0  0  0  0  0  0  0  0  0  0  0
   -3.2988   -2.2657    0.0000 O   0  0  0  0  0  0  0  0  0  0  0  0
   -0.7036   -2.1428    0.0000 C   0  0  0  0  0  0  0  0  0  0  0  0
   -0.6327   -3.6411    0.0000 C   0  0  0  0  0  0  0  0  0  0  0  0
    0.7004   -4.3289    0.0000 C   0  0  0  0  0  0  0  0  0  0  0  0
    1.9625   -3.5183    0.0000 C   0  0  0  0  0  0  0  0  0  0  0  0
    1.8916   -2.0199    0.0000 C   0  0  0  0  0  0  0  0  0  0  0  0
    0.5585   -1.3322    0.0000 C   0  0  0  0  0  0  0  0  0  0  0  0
   -3.4407    0.7310    0.0000 C   0  0  0  0  0  0  0  0  0  0  0  0
   -3.5116    2.2293    0.0000 C   0  0  0  0  0  0  0  0  0  0  0  0
   -2.2495    3.0399    0.0000 O   0  0  0  0  0  0  0  0  0  0  0  0
   -4.8447    2.9170    0.0000 O   0  0  0  0  0  0  0  0  0  0  0  0
  1  2  2  0
  2  3  1  0
  3  4  2  0
  4  5  1  0
  5  6  2  0
  4  7  1  0
  7  8  2  0
  8  9  1  0
  9 10  1  0
 10 11  2  0
 10 12  1  0
 12 13  2  0
 13 14  1  0
 14 15  2  0
 15 16  1  0
 16 17  2  0
  9 18  1  0
 18 19  1  0
 19 20  2  0
 19 21  1  0
 17  7  1  0
 17 12  1  0
  6  1  1  0
M  END
>  <rName>  (201) 
4Ph-1-oxophthalazin-2-acetyl

>  <PQ_SYMBOL>  (201) 
4Ph-1-oxophthalazin-2-acetyl

>  <FULL_NAME>  (201) 
2-(1-oxo-4-phenylphthalazin-2-yl)acetic acid

>  <IUPAC_CONDENSED>  (201) 
4Ph-1-oxophthalazin-2-acetyl

>  <IUPAC>  (201) 
2-(2-oxo-5-phenyl-3,4-diazabicyclo[4.4.0]deca-1(10),4,6,8-tetraen-3-yl)acetic acid

>  <TYPE>  (201) 
N-term cap

>  <CLASS>  (201) 
n_cap

>  <ANALOG>  (201) 
X

>  <MOL_WT>  (201) 
280.283

>  <LOGP>  (201) 
2.1481

>  <TPSA>  (201) 
72.19

>  <POPULARITY>  (201) 
7.9

>  <PROTECTED>  (201) 
TRUE

>  <SMILES>  (201) 
c3ccc(cc3)c1nn(c(=O)c2(ccccc12))CC(=O)O

>  <INCHIKEY>  (201) 
GYXUGIHFRFKEMD-UHFFFAOYSA-N

$$$$
Ser-OMe
     RDKit          2D

  8  7  0  0  0  0  0  0  0  0999 V2000
    0.9517    1.7412    0.0000 N   0  0  0  0  0  0  0  0  0  0  0  0
    0.7027    0.2620    0.0000 C   0  0  0  0  0  0  0  0  0  0  0  0
    1.8593   -0.6932    0.0000 C   0  0  0  0  0  0  0  0  0  0  0  0
    3.2648   -0.1692    0.0000 O   0  0  0  0  0  0  0  0  0  0  0  0
   -0.7027   -0.2620    0.0000 C   0  0  0  0  0  0  0  0  0  0  0  0
   -0.9517   -1.7412    0.0000 O   0  0  0  0  0  0  0  0  0  0  0  0
   -1.8593    0.6932    0.0000 O   0  0  0  0  0  0  0  0  0  0  0  0
   -3.2648    0.1692    0.0000 C   0  0  0  0  0  0  0  0  0  0  0  0
  2  1  1  1
  2  3  1  0
  3  4  1  0
  2  5  1  0
  5  6  2  0
  5  7  1  0
  7  8  1  0
M  END
>  <rName>  (202) 
Ser-OMe

>  <PQ_SYMBOL>  (202) 
Ser-OMe

>  <FULL_NAME>  (202) 
L-Serine methyl ester

>  <IUPAC_CONDENSED>  (202) 
Ser-OMe

>  <IUPAC>  (202) 
methyl (2S)-2-amino-3-hydroxypropanoate

>  <TYPE>  (202) 
C-term cap

>  <CLASS>  (202) 
c_cap

>  <ANALOG>  (202) 
X

>  <MOL_WT>  (202) 
119.11999999999999

>  <LOGP>  (202) 
-1.521

>  <TPSA>  (202) 
72.55

>  <POPULARITY>  (202) 
24.7

>  <PROTECTED>  (202) 
TRUE

>  <SMILES>  (202) 
N[C@@H](CO)C(=O)OC

>  <INCHIKEY>  (202) 
ANSUDRATXSJBLY-VKHMYHEASA-N

$$$$
Leu-OEt
     RDKit          2D

 11 10  0  0  0  0  0  0  0  0999 V2000
   -0.4981   -1.6682    0.0000 N   0  0  0  0  0  0  0  0  0  0  0  0
   -0.3704   -0.1736    0.0000 C   0  0  0  0  0  0  0  0  0  0  0  0
   -1.6009    0.6843    0.0000 C   0  0  0  0  0  0  0  0  0  0  0  0
   -2.9591    0.0476    0.0000 C   0  0  0  0  0  0  0  0  0  0  0  0
   -4.1895    0.9055    0.0000 C   0  0  0  0  0  0  0  0  0  0  0  0
   -3.0868   -1.4469    0.0000 C   0  0  0  0  0  0  0  0  0  0  0  0
    0.9878    0.4630    0.0000 C   0  0  0  0  0  0  0  0  0  0  0  0
    1.1155    1.9576    0.0000 O   0  0  0  0  0  0  0  0  0  0  0  0
    2.2182   -0.3949    0.0000 O   0  0  0  0  0  0  0  0  0  0  0  0
    3.5764    0.2418    0.0000 C   0  0  0  0  0  0  0  0  0  0  0  0
    4.8069   -0.6161    0.0000 C   0  0  0  0  0  0  0  0  0  0  0  0
  2  1  1  1
  2  3  1  0
  3  4  1  0
  4  5  1  0
  4  6  1  0
  2  7  1  0
  7  8  2  0
  7  9  1  0
  9 10  1  0
 10 11  1  0
M  END
>  <rName>  (203) 
Leu-OEt

>  <PQ_SYMBOL>  (203) 
Leu-OEt

>  <FULL_NAME>  (203) 
ethyl (2S)-2-amino-4-methylpentanoate

>  <IUPAC_CONDENSED>  (203) 
Leu-OEt

>  <IUPAC>  (203) 
ethyl (2S)-2-amino-4-methylpentanoate

>  <TYPE>  (203) 
C-term cap

>  <CLASS>  (203) 
c_cap

>  <ANALOG>  (203) 
X

>  <MOL_WT>  (203) 
159.22899999999998

>  <LOGP>  (203) 
0.9228999999999996

>  <TPSA>  (203) 
52.32000000000001

>  <POPULARITY>  (203) 
14.6

>  <PROTECTED>  (203) 
TRUE

>  <SMILES>  (203) 
N[C@@H](CC(C)C)C(=O)OCC

>  <INCHIKEY>  (203) 
QIGLJVBIRIXQRN-ZETCQYMHSA-N

$$$$
Sar-OMe
     RDKit          2D

  7  6  0  0  0  0  0  0  0  0999 V2000
   -2.0220    0.3004    0.0000 N   0  0  0  0  0  0  0  0  0  0  0  0
   -3.3863   -0.3229    0.0000 C   0  0  0  0  0  0  0  0  0  0  0  0
   -0.8000   -0.5695    0.0000 C   0  0  0  0  0  0  0  0  0  0  0  0
    0.5644    0.0538    0.0000 C   0  0  0  0  0  0  0  0  0  0  0  0
    0.7068    1.5470    0.0000 O   0  0  0  0  0  0  0  0  0  0  0  0
    1.7864   -0.8161    0.0000 O   0  0  0  0  0  0  0  0  0  0  0  0
    3.1507   -0.1928    0.0000 C   0  0  0  0  0  0  0  0  0  0  0  0
  1  2  1  0
  1  3  1  0
  3  4  1  0
  4  5  2  0
  4  6  1  0
  6  7  1  0
M  END
>  <rName>  (204) 
Sar-OMe

>  <PQ_SYMBOL>  (204) 
Sar-OMe

>  <FULL_NAME>  (204) 
methyl 2-(methylamino)acetate

>  <IUPAC_CONDENSED>  (204) 
Sar-OMe

>  <IUPAC>  (204) 
methyl 2-(methylamino)acetate

>  <TYPE>  (204) 
C-term cap

>  <CLASS>  (204) 
c_cap

>  <ANALOG>  (204) 
X

>  <MOL_WT>  (204) 
103.12099999999998

>  <LOGP>  (204) 
-0.6212000000000002

>  <TPSA>  (204) 
38.33

>  <POPULARITY>  (204) 
19.4

>  <PROTECTED>  (204) 
TRUE

>  <SMILES>  (204) 
N(C)CC(=O)OC

>  <INCHIKEY>  (204) 
VXGABWCSZZWXPC-UHFFFAOYSA-N

$$$$
amidino-Pro
     RDKit          2D

 11 11  0  0  0  0  0  0  0  0999 V2000
   -3.1235   -0.6434    0.0000 N   0  0  0  0  0  0  0  0  0  0  0  0
   -1.6317   -0.8002    0.0000 C   0  0  0  0  0  0  0  0  0  0  0  0
   -1.0216   -2.1705    0.0000 N   0  0  0  0  0  0  0  0  0  0  0  0
   -0.7500    0.4133    0.0000 N   0  0  0  0  0  0  0  0  0  0  0  0
    0.7500    0.4133    0.0000 C   0  0  0  0  0  0  0  0  0  0  0  0
    1.2135    1.8399    0.0000 C   0  0  0  0  0  0  0  0  0  0  0  0
   -0.0000    2.7216    0.0000 C   0  0  0  0  0  0  0  0  0  0  0  0
   -1.2135    1.8399    0.0000 C   0  0  0  0  0  0  0  0  0  0  0  0
    1.6317   -0.8002    0.0000 C   0  0  0  0  0  0  0  0  0  0  0  0
    3.1235   -0.6434    0.0000 O   0  0  0  0  0  0  0  0  0  0  0  0
    1.0216   -2.1705    0.0000 O   0  0  0  0  0  0  0  0  0  0  0  0
  1  2  1  0
  2  3  2  0
  2  4  1  0
  4  5  1  0
  5  6  1  0
  6  7  1  0
  7  8  1  0
  5  9  1  1
  9 10  2  0
  9 11  1  0
  8  4  1  0
M  END
>  <rName>  (205) 
amidino-Pro

>  <PQ_SYMBOL>  (205) 
amidino-Pro

>  <FULL_NAME>  (205) 
(2S)-1-carbamimidoylpyrrolidine-2-carboxylic acid

>  <IUPAC_CONDENSED>  (205) 
amidino-Pro

>  <IUPAC>  (205) 
(2S)-1-((amino)(imino)methyl)pyrrolidine-2-carboxylic acid

>  <TYPE>  (205) 
N-term cap

>  <CLASS>  (205) 
n_cap

>  <ANALOG>  (205) 
X

>  <MOL_WT>  (205) 
157.173

>  <LOGP>  (205) 
-0.5711299999999999

>  <TPSA>  (205) 
90.41000000000001

>  <POPULARITY>  (205) 
7.6

>  <PROTECTED>  (205) 
TRUE

>  <SMILES>  (205) 
NC(=N)N1[C@@H](CCC1)C(=O)O

>  <INCHIKEY>  (205) 
ZXPRYJHVDMWTMA-BYPYZUCNSA-N

$$$$
NMe2Ile
     RDKit          2D

 11 10  0  0  0  0  0  0  0  0999 V2000
    2.7273    0.0000    0.0000 C   0  0  0  0  0  0  0  0  0  0  0  0
    1.9773   -1.2990    0.0000 C   0  0  0  0  0  0  0  0  0  0  0  0
    0.4773   -1.2990    0.0000 C   0  0  0  0  0  0  0  0  0  0  0  0
   -0.2727   -2.5981    0.0000 C   0  0  0  0  0  0  0  0  0  0  0  0
   -0.2727    0.0000    0.0000 C   0  0  0  0  0  0  0  0  0  0  0  0
    0.4773    1.2990    0.0000 N   0  0  0  0  0  0  0  0  0  0  0  0
   -0.2727    2.5981    0.0000 C   0  0  0  0  0  0  0  0  0  0  0  0
    1.9773    1.2990    0.0000 C   0  0  0  0  0  0  0  0  0  0  0  0
   -1.7727   -0.0000    0.0000 C   0  0  0  0  0  0  0  0  0  0  0  0
   -2.5227   -1.2990    0.0000 O   0  0  0  0  0  0  0  0  0  0  0  0
   -2.5227    1.2990    0.0000 O   0  0  0  0  0  0  0  0  0  0  0  0
  1  2  1  0
  2  3  1  0
  3  4  1  6
  3  5  1  0
  5  6  1  1
  6  7  1  0
  6  8  1  0
  5  9  1  0
  9 10  2  0
  9 11  1  0
M  END
>  <rName>  (206) 
NMe2Ile

>  <PQ_SYMBOL>  (206) 
NMe2Ile

>  <FULL_NAME>  (206) 
methyl N-Methyl-Isoleucine

>  <IUPAC_CONDENSED>  (206) 
N(Me2)Ile

>  <IUPAC>  (206) 
(2S,3S)-2-(dimethylamino)-3-methylpentanoic acid

>  <TYPE>  (206) 
N-term cap

>  <CLASS>  (206) 
n_cap

>  <ANALOG>  (206) 
X

>  <MOL_WT>  (206) 
159.22899999999998

>  <LOGP>  (206) 
1.0473

>  <TPSA>  (206) 
40.540000000000006

>  <POPULARITY>  (206) 
11.8

>  <PROTECTED>  (206) 
TRUE

>  <SMILES>  (206) 
CC[C@H](C)[C@H](N(C)C)C(=O)O

>  <INCHIKEY>  (206) 
OQJJVXKMPUJFJK-BQBZGAKWSA-N

$$$$
Pht-Phe
     RDKit          2D

 22 24  0  0  0  0  0  0  0  0999 V2000
    5.8189   -0.1850    0.0000 C   0  0  0  0  0  0  0  0  0  0  0  0
    4.6264   -1.0949    0.0000 C   0  0  0  0  0  0  0  0  0  0  0  0
    3.2421   -0.5170    0.0000 C   0  0  0  0  0  0  0  0  0  0  0  0
    1.8865   -1.1591    0.0000 C   0  0  0  0  0  0  0  0  0  0  0  0
    1.6091   -2.6332    0.0000 O   0  0  0  0  0  0  0  0  0  0  0  0
    0.8569   -0.0682    0.0000 N   0  0  0  0  0  0  0  0  0  0  0  0
    1.5763    1.2481    0.0000 C   0  0  0  0  0  0  0  0  0  0  0  0
    0.9343    2.6037    0.0000 O   0  0  0  0  0  0  0  0  0  0  0  0
    3.0504    0.9707    0.0000 C   0  0  0  0  0  0  0  0  0  0  0  0
    4.2430    1.8805    0.0000 C   0  0  0  0  0  0  0  0  0  0  0  0
    5.6272    1.3027    0.0000 C   0  0  0  0  0  0  0  0  0  0  0  0
   -0.6308   -0.2599    0.0000 C   0  0  0  0  0  0  0  0  0  0  0  0
   -1.5406    0.9326    0.0000 C   0  0  0  0  0  0  0  0  0  0  0  0
   -3.0283    0.7409    0.0000 C   0  0  0  0  0  0  0  0  0  0  0  0
   -3.9382    1.9335    0.0000 C   0  0  0  0  0  0  0  0  0  0  0  0
   -5.4259    1.7418    0.0000 C   0  0  0  0  0  0  0  0  0  0  0  0
   -6.0037    0.3575    0.0000 C   0  0  0  0  0  0  0  0  0  0  0  0
   -5.0938   -0.8350    0.0000 C   0  0  0  0  0  0  0  0  0  0  0  0
   -3.6062   -0.6433    0.0000 C   0  0  0  0  0  0  0  0  0  0  0  0
   -1.2086   -1.6441    0.0000 C   0  0  0  0  0  0  0  0  0  0  0  0
   -0.2987   -2.8367    0.0000 O   0  0  0  0  0  0  0  0  0  0  0  0
   -2.6963   -1.8358    0.0000 O   0  0  0  0  0  0  0  0  0  0  0  0
  1  2  1  0
  2  3  2  0
  3  4  1  0
  4  5  2  0
  4  6  1  0
  6  7  1  0
  7  8  2  0
  7  9  1  0
  9 10  2  0
 10 11  1  0
  6 12  1  0
 12 13  1  6
 13 14  1  0
 14 15  2  0
 15 16  1  0
 16 17  2  0
 17 18  1  0
 18 19  2  0
 12 20  1  0
 20 21  2  0
 20 22  1  0
 19 14  1  0
  9  3  1  0
 11  1  2  0
M  END
>  <rName>  (207) 
Pht-Phe

>  <PQ_SYMBOL>  (207) 
Pht-Phe

>  <FULL_NAME>  (207) 
(2S)-2-(1,3-dioxoisoindol-2-yl)-3-phenylpropanoic acid

>  <IUPAC_CONDENSED>  (207) 
Pht-Phe

>  <IUPAC>  (207) 
(2S)-2-(7,9-dioxo-8-azabicyclo[4.3.0]nona-1(6),2,4-trien-8-yl)-3-phenylpropanoic acid

>  <TYPE>  (207) 
N-term cap

>  <CLASS>  (207) 
n_cap

>  <ANALOG>  (207) 
X

>  <MOL_WT>  (207) 
295.29400000000004

>  <LOGP>  (207) 
1.9785000000000001

>  <TPSA>  (207) 
74.68

>  <POPULARITY>  (207) 
7.5

>  <PROTECTED>  (207) 
TRUE

>  <SMILES>  (207) 
c3cc2C(=O)N(C(=O)c2cc3)[C@@H](Cc1(ccccc1))C(=O)O

>  <INCHIKEY>  (207) 
VAYRSTHMTWUHGE-AWEZNQCLSA-N

$$$$
D-4-thia-Pip_carbonyl_5RMe
     RDKit          2D

 11 11  0  0  0  0  0  0  0  0999 V2000
    3.4740   -0.7463    0.0000 C   0  0  0  0  0  0  0  0  0  0  0  0
    1.9898   -0.5295    0.0000 C   0  0  0  0  0  0  0  0  0  0  0  0
    1.0599   -1.7064    0.0000 S   0  0  0  0  0  0  0  0  0  0  0  0
   -0.4244   -1.4895    0.0000 C   0  0  0  0  0  0  0  0  0  0  0  0
   -0.9787   -0.0957    0.0000 C   0  0  0  0  0  0  0  0  0  0  0  0
   -0.0487    1.0813    0.0000 N   0  0  0  0  0  0  0  0  0  0  0  0
    1.4355    0.8644    0.0000 C   0  0  0  0  0  0  0  0  0  0  0  0
    2.3655    2.0413    0.0000 O   0  0  0  0  0  0  0  0  0  0  0  0
   -2.4629    0.1212    0.0000 C   0  0  0  0  0  0  0  0  0  0  0  0
   -3.3929   -1.0557    0.0000 O   0  0  0  0  0  0  0  0  0  0  0  0
   -3.0172    1.5150    0.0000 O   0  0  0  0  0  0  0  0  0  0  0  0
  2  1  1  1
  2  3  1  0
  3  4  1  0
  4  5  1  0
  5  6  1  0
  6  7  1  0
  7  8  2  0
  5  9  1  1
  9 10  2  0
  9 11  1  0
  7  2  1  0
M  END
>  <rName>  (208) 
D-4-thia-Pip_carbonyl_5RMe

>  <PQ_SYMBOL>  (208) 
D-4-thia-Pip_carbonyl_5RMe

>  <FULL_NAME>  (208) 
(3R,6R)-6-methyl-5-oxothiomorpholine-3-carboxylic acid

>  <IUPAC_CONDENSED>  (208) 
D-4-thia-Pip(carbonyl,5R-Me)

>  <IUPAC>  (208) 
(3R,6R)-6-methyl-5-oxothiomorpholine-3-carboxylic acid

>  <TYPE>  (208) 
N-term cap

>  <CLASS>  (208) 
n_cap

>  <ANALOG>  (208) 
X

>  <MOL_WT>  (208) 
175.20899999999997

>  <LOGP>  (208) 
-0.30890000000000023

>  <TPSA>  (208) 
66.4

>  <POPULARITY>  (208) 
6.5

>  <PROTECTED>  (208) 
TRUE

>  <SMILES>  (208) 
C[C@H]1SC[C@H](NC1=O)C(=O)O

>  <INCHIKEY>  (208) 
QJFTZLOJRRSNEI-DMTCNVIQSA-N

$$$$
Trp-OBn
     RDKit          2D

 22 24  0  0  0  0  0  0  0  0999 V2000
    0.0709   -1.5459    0.0000 N   0  0  0  0  0  0  0  0  0  0  0  0
    0.2042   -0.0518    0.0000 C   0  0  0  0  0  0  0  0  0  0  0  0
    1.5648    0.5798    0.0000 C   0  0  0  0  0  0  0  0  0  0  0  0
    2.7920   -0.2827    0.0000 C   0  0  0  0  0  0  0  0  0  0  0  0
    2.8156   -1.7825    0.0000 C   0  0  0  0  0  0  0  0  0  0  0  0
    4.2493   -2.2235    0.0000 N   0  0  0  0  0  0  0  0  0  0  0  0
    5.1118   -0.9963    0.0000 C   0  0  0  0  0  0  0  0  0  0  0  0
    6.6009   -0.8160    0.0000 C   0  0  0  0  0  0  0  0  0  0  0  0
    7.1894    0.5637    0.0000 C   0  0  0  0  0  0  0  0  0  0  0  0
    6.2887    1.7632    0.0000 C   0  0  0  0  0  0  0  0  0  0  0  0
    4.7996    1.5830    0.0000 C   0  0  0  0  0  0  0  0  0  0  0  0
    4.2111    0.2032    0.0000 C   0  0  0  0  0  0  0  0  0  0  0  0
   -1.0230    0.8106    0.0000 C   0  0  0  0  0  0  0  0  0  0  0  0
   -0.8897    2.3047    0.0000 O   0  0  0  0  0  0  0  0  0  0  0  0
   -2.3836    0.1790    0.0000 O   0  0  0  0  0  0  0  0  0  0  0  0
   -3.6108    1.0415    0.0000 C   0  0  0  0  0  0  0  0  0  0  0  0
   -4.9714    0.4099    0.0000 C   0  0  0  0  0  0  0  0  0  0  0  0
   -6.1986    1.2724    0.0000 C   0  0  0  0  0  0  0  0  0  0  0  0
   -7.5592    0.6408    0.0000 C   0  0  0  0  0  0  0  0  0  0  0  0
   -7.6925   -0.8533    0.0000 C   0  0  0  0  0  0  0  0  0  0  0  0
   -6.4652   -1.7157    0.0000 C   0  0  0  0  0  0  0  0  0  0  0  0
   -5.1047   -1.0841    0.0000 C   0  0  0  0  0  0  0  0  0  0  0  0
  2  1  1  6
  2  3  1  0
  3  4  1  0
  4  5  2  0
  5  6  1  0
  6  7  1  0
  7  8  2  0
  8  9  1  0
  9 10  2  0
 10 11  1  0
 11 12  2  0
  2 13  1  0
 13 14  2  0
 13 15  1  0
 15 16  1  0
 16 17  1  0
 17 18  2  0
 18 19  1  0
 19 20  2  0
 20 21  1  0
 21 22  2  0
 22 17  1  0
 12  4  1  0
 12  7  1  0
M  END
>  <rName>  (209) 
Trp-OBn

>  <PQ_SYMBOL>  (209) 
Trp-OBn

>  <FULL_NAME>  (209) 
Tryptophan benzyl ester

>  <IUPAC_CONDENSED>  (209) 
Trp-OBn

>  <IUPAC>  (209) 
benzyl (2S)-2-amino-3-(1H-indol-3-yl)propanoate

>  <TYPE>  (209) 
C-term cap

>  <CLASS>  (209) 
c_cap

>  <ANALOG>  (209) 
X

>  <MOL_WT>  (209) 
294.354

>  <LOGP>  (209) 
2.7811000000000012

>  <TPSA>  (209) 
68.11

>  <POPULARITY>  (209) 
14.9

>  <PROTECTED>  (209) 
TRUE

>  <SMILES>  (209) 
N[C@@H](Cc2(c[nH]c3(ccccc23)))C(=O)OCc1ccccc1

>  <INCHIKEY>  (209) 
TYQYRKDGHAPZRF-INIZCTEOSA-N

$$$$
S-3-aminoazepan-2-one
     RDKit          2D

  9  9  0  0  0  0  0  0  0  0999 V2000
    2.2624   -1.4008    0.0000 N   0  0  0  0  0  0  0  0  0  0  0  0
    0.9110   -0.7500    0.0000 C   0  0  0  0  0  0  0  0  0  0  0  0
    0.9110    0.7500    0.0000 C   0  0  0  0  0  0  0  0  0  0  0  0
    2.2624    1.4008    0.0000 O   0  0  0  0  0  0  0  0  0  0  0  0
   -0.2618    1.6852    0.0000 N   0  0  0  0  0  0  0  0  0  0  0  0
   -1.7242    1.3515    0.0000 C   0  0  0  0  0  0  0  0  0  0  0  0
   -2.3750    0.0000    0.0000 C   0  0  0  0  0  0  0  0  0  0  0  0
   -1.7242   -1.3515    0.0000 C   0  0  0  0  0  0  0  0  0  0  0  0
   -0.2618   -1.6852    0.0000 C   0  0  0  0  0  0  0  0  0  0  0  0
  2  1  1  1
  2  3  1  0
  3  4  2  0
  3  5  1  0
  5  6  1  0
  6  7  1  0
  7  8  1  0
  8  9  1  0
  9  2  1  0
M  END
>  <rName>  (210) 
S-3-aminoazepan-2-one

>  <PQ_SYMBOL>  (210) 
S-3-aminoazepan-2-one

>  <FULL_NAME>  (210) 
(3S)-3-aminoazepan-2-one

>  <IUPAC_CONDENSED>  (210) 
S-3-aminoazepan-2-one

>  <IUPAC>  (210) 
(3S)-3-amino-1-azacycloheptan-2-one

>  <TYPE>  (210) 
C-term cap

>  <CLASS>  (210) 
c_cap

>  <ANALOG>  (210) 
X

>  <MOL_WT>  (210) 
128.17499999999998

>  <LOGP>  (210) 
-0.38620000000000076

>  <TPSA>  (210) 
55.120000000000005

>  <POPULARITY>  (210) 
16.1

>  <PROTECTED>  (210) 
TRUE

>  <SMILES>  (210) 
N[C@@H]1C(=O)NCCCC1

>  <INCHIKEY>  (210) 
BOWUOGIPSRVRSJ-YFKPBYRVSA-N

$$$$
Asn_For
     RDKit          2D

 11 11  0  0  0  0  0  0  0  0999 V2000
    2.1818    0.0000    0.0000 N   0  0  0  0  0  0  0  0  0  0  0  0
    1.4318   -1.2990    0.0000 C   0  0  0  0  0  0  0  0  0  0  0  0
    2.1818   -2.5981    0.0000 O   0  0  0  0  0  0  0  0  0  0  0  0
   -0.0682   -1.2990    0.0000 N   0  0  0  0  0  0  0  0  0  0  0  0
   -0.8182    0.0000    0.0000 C   0  0  0  0  0  0  0  0  0  0  0  0
   -0.0682    1.2990    0.0000 C   0  0  0  0  0  0  0  0  0  0  0  0
    1.4318    1.2990    0.0000 C   0  0  0  0  0  0  0  0  0  0  0  0
    2.1818    2.5981    0.0000 O   0  0  0  0  0  0  0  0  0  0  0  0
   -2.3182    0.0000    0.0000 C   0  0  0  0  0  0  0  0  0  0  0  0
   -3.0682   -1.2990    0.0000 O   0  0  0  0  0  0  0  0  0  0  0  0
   -3.0682    1.2990    0.0000 O   0  0  0  0  0  0  0  0  0  0  0  0
  1  2  1  0
  2  3  2  0
  2  4  1  0
  4  5  1  0
  5  6  1  0
  6  7  1  0
  7  8  2  0
  5  9  1  6
  9 10  2  0
  9 11  1  0
  7  1  1  0
M  END
>  <rName>  (211) 
Asn_For

>  <PQ_SYMBOL>  (211) 
Asn_For

>  <FULL_NAME>  (211) 
(4S)-2,6-dioxo-1,3-diazinane-4-carboxylic acid

>  <IUPAC_CONDENSED>  (211) 
Asn(For)

>  <IUPAC>  (211) 
(4S)-2,6-dioxo-1,3-diazacyclohexane-4-carboxylic acid

>  <TYPE>  (211) 
N-term cap

>  <CLASS>  (211) 
n_cap

>  <ANALOG>  (211) 
X

>  <MOL_WT>  (211) 
158.113

>  <LOGP>  (211) 
-1.3309

>  <TPSA>  (211) 
95.50000000000001

>  <POPULARITY>  (211) 
10.6

>  <PROTECTED>  (211) 
TRUE

>  <SMILES>  (211) 
N1C(=O)N[C@@H](CC1=O)C(=O)O

>  <INCHIKEY>  (211) 
UFIVEPVSAGBUSI-REOHCLBHSA-N

$$$$
NMe2Phe
     RDKit          2D

 14 14  0  0  0  0  0  0  0  0999 V2000
   -3.9235   -0.3387    0.0000 C   0  0  0  0  0  0  0  0  0  0  0  0
   -3.6619    1.1383    0.0000 C   0  0  0  0  0  0  0  0  0  0  0  0
   -2.2520    1.6502    0.0000 C   0  0  0  0  0  0  0  0  0  0  0  0
   -1.1037    0.6851    0.0000 C   0  0  0  0  0  0  0  0  0  0  0  0
   -1.3653   -0.7919    0.0000 C   0  0  0  0  0  0  0  0  0  0  0  0
   -2.7752   -1.3038    0.0000 C   0  0  0  0  0  0  0  0  0  0  0  0
    0.3063    1.1971    0.0000 C   0  0  0  0  0  0  0  0  0  0  0  0
    1.4546    0.2320    0.0000 C   0  0  0  0  0  0  0  0  0  0  0  0
    1.1930   -1.2450    0.0000 N   0  0  0  0  0  0  0  0  0  0  0  0
    2.3413   -2.2101    0.0000 C   0  0  0  0  0  0  0  0  0  0  0  0
   -0.2170   -1.7569    0.0000 C   0  0  0  0  0  0  0  0  0  0  0  0
    2.8645    0.7439    0.0000 C   0  0  0  0  0  0  0  0  0  0  0  0
    3.1261    2.2209    0.0000 O   0  0  0  0  0  0  0  0  0  0  0  0
    4.0128   -0.2211    0.0000 O   0  0  0  0  0  0  0  0  0  0  0  0
  1  2  2  0
  2  3  1  0
  3  4  2  0
  4  5  1  0
  5  6  2  0
  4  7  1  0
  8  7  1  1
  8  9  1  0
  9 10  1  0
  9 11  1  0
  8 12  1  0
 12 13  2  0
 12 14  1  0
  6  1  1  0
M  END
>  <rName>  (212) 
NMe2Phe

>  <PQ_SYMBOL>  (212) 
NMe2Phe

>  <FULL_NAME>  (212) 
methyl N-Methyl-Phenylalanine

>  <IUPAC_CONDENSED>  (212) 
N(Me2)Phe

>  <IUPAC>  (212) 
(2S)-2-(dimethylamino)-3-phenylpropanoic acid

>  <TYPE>  (212) 
N-term cap

>  <CLASS>  (212) 
n_cap

>  <ANALOG>  (212) 
X

>  <MOL_WT>  (212) 
193.24599999999998

>  <LOGP>  (212) 
1.2439

>  <TPSA>  (212) 
40.540000000000006

>  <POPULARITY>  (212) 
15.4

>  <PROTECTED>  (212) 
TRUE

>  <SMILES>  (212) 
c1ccc(cc1)C[C@H](N(C)C)C(=O)O

>  <INCHIKEY>  (212) 
HOGIQTACRLIOHC-JTQLQIEISA-N

$$$$
Phe-OBn
     RDKit          2D

 19 20  0  0  0  0  0  0  0  0999 V2000
    1.2362    1.1784    0.0000 N   0  0  0  0  0  0  0  0  0  0  0  0
    1.2292   -0.3215    0.0000 C   0  0  0  0  0  0  0  0  0  0  0  0
    2.5247   -1.0776    0.0000 C   0  0  0  0  0  0  0  0  0  0  0  0
    3.8272   -0.3337    0.0000 C   0  0  0  0  0  0  0  0  0  0  0  0
    5.1227   -1.0898    0.0000 C   0  0  0  0  0  0  0  0  0  0  0  0
    6.4253   -0.3459    0.0000 C   0  0  0  0  0  0  0  0  0  0  0  0
    6.4323    1.1541    0.0000 C   0  0  0  0  0  0  0  0  0  0  0  0
    5.1368    1.9102    0.0000 C   0  0  0  0  0  0  0  0  0  0  0  0
    3.8342    1.1663    0.0000 C   0  0  0  0  0  0  0  0  0  0  0  0
   -0.0734   -1.0655    0.0000 C   0  0  0  0  0  0  0  0  0  0  0  0
   -0.0804   -2.5654    0.0000 O   0  0  0  0  0  0  0  0  0  0  0  0
   -1.3689   -0.3094    0.0000 O   0  0  0  0  0  0  0  0  0  0  0  0
   -2.6714   -1.0533    0.0000 C   0  0  0  0  0  0  0  0  0  0  0  0
   -3.9669   -0.2972    0.0000 C   0  0  0  0  0  0  0  0  0  0  0  0
   -3.9599    1.2028    0.0000 C   0  0  0  0  0  0  0  0  0  0  0  0
   -5.2554    1.9588    0.0000 C   0  0  0  0  0  0  0  0  0  0  0  0
   -6.5579    1.2149    0.0000 C   0  0  0  0  0  0  0  0  0  0  0  0
   -6.5650   -0.2851    0.0000 C   0  0  0  0  0  0  0  0  0  0  0  0
   -5.2695   -1.0411    0.0000 C   0  0  0  0  0  0  0  0  0  0  0  0
  2  1  1  1
  2  3  1  0
  3  4  1  0
  4  5  2  0
  5  6  1  0
  6  7  2  0
  7  8  1  0
  8  9  2  0
  2 10  1  0
 10 11  2  0
 10 12  1  0
 12 13  1  0
 13 14  1  0
 14 15  2  0
 15 16  1  0
 16 17  2  0
 17 18  1  0
 18 19  2  0
 19 14  1  0
  9  4  1  0
M  END
>  <rName>  (213) 
Phe-OBn

>  <PQ_SYMBOL>  (213) 
Phe-OBn

>  <FULL_NAME>  (213) 
L-Phenylalanine benzyl ester

>  <IUPAC_CONDENSED>  (213) 
Phe-OBn

>  <IUPAC>  (213) 
benzyl (2S)-2-amino-3-phenylpropanoate

>  <TYPE>  (213) 
C-term cap

>  <CLASS>  (213) 
c_cap

>  <ANALOG>  (213) 
X

>  <MOL_WT>  (213) 
255.31699999999995

>  <LOGP>  (213) 
2.2998000000000003

>  <TPSA>  (213) 
52.32000000000001

>  <POPULARITY>  (213) 
10.3

>  <PROTECTED>  (213) 
TRUE

>  <SMILES>  (213) 
N[C@@H](Cc2(ccccc2))C(=O)OCc1ccccc1

>  <INCHIKEY>  (213) 
FPRSPUHXEPWUBZ-HNNXBMFYSA-N

$$$$
Thz_carbonyl
     RDKit          2D

  9  9  0  0  0  0  0  0  0  0999 V2000
   -3.3052   -0.8467    0.0000 O   0  0  0  0  0  0  0  0  0  0  0  0
   -1.9481   -0.2077    0.0000 C   0  0  0  0  0  0  0  0  0  0  0  0
   -0.6334   -0.9301    0.0000 N   0  0  0  0  0  0  0  0  0  0  0  0
    0.4598    0.0969    0.0000 C   0  0  0  0  0  0  0  0  0  0  0  0
   -0.1792    1.4541    0.0000 C   0  0  0  0  0  0  0  0  0  0  0  0
   -1.6673    1.2657    0.0000 S   0  0  0  0  0  0  0  0  0  0  0  0
    1.9333   -0.1838    0.0000 C   0  0  0  0  0  0  0  0  0  0  0  0
    2.9132    0.9519    0.0000 O   0  0  0  0  0  0  0  0  0  0  0  0
    2.4269   -1.6003    0.0000 O   0  0  0  0  0  0  0  0  0  0  0  0
  1  2  2  0
  2  3  1  0
  3  4  1  0
  4  5  1  0
  5  6  1  0
  4  7  1  1
  7  8  2  0
  7  9  1  0
  6  2  1  0
M  END
>  <rName>  (214) 
Thz_carbonyl

>  <PQ_SYMBOL>  (214) 
Thz_carbonyl

>  <FULL_NAME>  (214) 
(4R)-2-oxo-1,3-thiazolidine-4-carboxylic acid

>  <IUPAC_CONDENSED>  (214) 
Thz(carbonyl)

>  <IUPAC>  (214) 
(4R)-2-oxo-thiazolidine-4-carboxylic acid

>  <TYPE>  (214) 
N-term cap

>  <CLASS>  (214) 
n_cap

>  <ANALOG>  (214) 
X

>  <MOL_WT>  (214) 
147.155

>  <LOGP>  (214) 
-0.10399999999999993

>  <TPSA>  (214) 
66.4

>  <POPULARITY>  (214) 
8.2

>  <PROTECTED>  (214) 
TRUE

>  <SMILES>  (214) 
O=C1N[C@@H](CS1)C(=O)O

>  <INCHIKEY>  (214) 
BMLMGCPTLHPWPY-REOHCLBHSA-N

$$$$
Gly-OMe
     RDKit          2D

  6  5  0  0  0  0  0  0  0  0999 V2000
    2.5981   -0.0000    0.0000 N   0  0  0  0  0  0  0  0  0  0  0  0
    1.2990    0.7500    0.0000 C   0  0  0  0  0  0  0  0  0  0  0  0
    0.0000   -0.0000    0.0000 C   0  0  0  0  0  0  0  0  0  0  0  0
    0.0000   -1.5000    0.0000 O   0  0  0  0  0  0  0  0  0  0  0  0
   -1.2990    0.7500    0.0000 O   0  0  0  0  0  0  0  0  0  0  0  0
   -2.5981    0.0000    0.0000 C   0  0  0  0  0  0  0  0  0  0  0  0
  1  2  1  0
  2  3  1  0
  3  4  2  0
  3  5  1  0
  5  6  1  0
M  END
>  <rName>  (215) 
Gly-OMe

>  <PQ_SYMBOL>  (215) 
Gly-OMe

>  <FULL_NAME>  (215) 
Glycine methyl ester

>  <IUPAC_CONDENSED>  (215) 
Gly-OMe

>  <IUPAC>  (215) 
methyl 2-aminoacetate

>  <TYPE>  (215) 
C-term cap

>  <CLASS>  (215) 
c_cap

>  <ANALOG>  (215) 
X

>  <MOL_WT>  (215) 
89.094

>  <LOGP>  (215) 
-0.8819000000000001

>  <TPSA>  (215) 
52.32000000000001

>  <POPULARITY>  (215) 
28.5

>  <PROTECTED>  (215) 
TRUE

>  <SMILES>  (215) 
NCC(=O)OC

>  <INCHIKEY>  (215) 
KQSSATDQUYCRGS-UHFFFAOYSA-N

$$$$
Glu_OEt-
     RDKit          2D

 12 11  0  0  0  0  0  0  0  0999 V2000
   -2.1767    1.9873    0.0000 N   0  0  0  0  0  0  0  0  0  0  0  0
   -2.1680    0.4873    0.0000 C   0  0  0  0  0  0  0  0  0  0  0  0
   -0.8645   -0.2551    0.0000 C   0  0  0  0  0  0  0  0  0  0  0  0
    0.4301    0.5025    0.0000 C   0  0  0  0  0  0  0  0  0  0  0  0
    1.7335   -0.2399    0.0000 C   0  0  0  0  0  0  0  0  0  0  0  0
    1.7423   -1.7398    0.0000 O   0  0  0  0  0  0  0  0  0  0  0  0
    3.0281    0.5177    0.0000 O   0  0  0  0  0  0  0  0  0  0  0  0
    4.3315   -0.2247    0.0000 C   0  0  0  0  0  0  0  0  0  0  0  0
    5.6261    0.5329    0.0000 C   0  0  0  0  0  0  0  0  0  0  0  0
   -3.4626   -0.2703    0.0000 C   0  0  0  0  0  0  0  0  0  0  0  0
   -3.4538   -1.7702    0.0000 O   0  0  0  0  0  0  0  0  0  0  0  0
   -4.7660    0.4721    0.0000 O   0  0  0  0  0  0  0  0  0  0  0  0
  2  1  1  1
  2  3  1  0
  3  4  1  0
  4  5  1  0
  5  6  2  0
  5  7  1  0
  7  8  1  0
  8  9  1  0
  2 10  1  0
 10 11  2  0
 10 12  1  0
M  END
>  <rName>  (216) 
Glu_OEt-

>  <PQ_SYMBOL>  (216) 
Glu_OEt-

>  <FULL_NAME>  (216) 
(2S)-2-amino-5-ethoxy-5-oxopentanoic acid

>  <IUPAC_CONDENSED>  (216) 
Glu(OEt)

>  <IUPAC>  (216) 
(2S)-2-amino-4-(ethoxycarbonyl)butanoic acid

>  <TYPE>  (216) 
N-term cap

>  <CLASS>  (216) 
n_cap

>  <ANALOG>  (216) 
X

>  <MOL_WT>  (216) 
175.18399999999997

>  <LOGP>  (216) 
-0.25840000000000046

>  <TPSA>  (216) 
89.62000000000002

>  <POPULARITY>  (216) 
9.3

>  <PROTECTED>  (216) 
TRUE

>  <SMILES>  (216) 
N[C@@H](CCC(=O)OCC)C(=O)O

>  <INCHIKEY>  (216) 
XMQUEQJCYRFIQS-YFKPBYRVSA-N

$$$$
Bn3-F-Gly-
     RDKit          2D

 13 13  0  0  0  0  0  0  0  0999 V2000
   -1.6091   -0.1426    0.0000 N   0  0  0  0  0  0  0  0  0  0  0  0
   -0.3532   -0.9628    0.0000 C   0  0  0  0  0  0  0  0  0  0  0  0
    0.9851   -0.2853    0.0000 C   0  0  0  0  0  0  0  0  0  0  0  0
    1.0675    1.2124    0.0000 C   0  0  0  0  0  0  0  0  0  0  0  0
    2.4057    1.8899    0.0000 C   0  0  0  0  0  0  0  0  0  0  0  0
    3.6616    1.0697    0.0000 C   0  0  0  0  0  0  0  0  0  0  0  0
    3.5792   -0.4280    0.0000 C   0  0  0  0  0  0  0  0  0  0  0  0
    4.8351   -1.2482    0.0000 F   0  0  0  0  0  0  0  0  0  0  0  0
    2.2410   -1.1055    0.0000 C   0  0  0  0  0  0  0  0  0  0  0  0
   -2.9473   -0.8201    0.0000 C   0  0  0  0  0  0  0  0  0  0  0  0
   -4.2032    0.0001    0.0000 C   0  0  0  0  0  0  0  0  0  0  0  0
   -4.1208    1.4978    0.0000 O   0  0  0  0  0  0  0  0  0  0  0  0
   -5.5415   -0.6774    0.0000 O   0  0  0  0  0  0  0  0  0  0  0  0
  1  2  1  0
  2  3  1  0
  3  4  2  0
  4  5  1  0
  5  6  2  0
  6  7  1  0
  7  8  1  0
  7  9  2  0
  1 10  1  0
 10 11  1  0
 11 12  2  0
 11 13  1  0
  9  3  1  0
M  END
>  <rName>  (217) 
Bn3-F-Gly-

>  <PQ_SYMBOL>  (217) 
Bn3-F-Gly-

>  <FULL_NAME>  (217) 
2-[(3-fluorophenyl)methylamino]acetic acid

>  <IUPAC_CONDENSED>  (217) 
Bn(3-F)-Gly

>  <IUPAC>  (217) 
2-(((3-fluorophenyl)methyl)amino)acetic acid

>  <TYPE>  (217) 
N-term cap

>  <CLASS>  (217) 
n_cap

>  <ANALOG>  (217) 
X

>  <MOL_WT>  (217) 
183.18199999999996

>  <LOGP>  (217) 
0.9999000000000002

>  <TPSA>  (217) 
49.33

>  <POPULARITY>  (217) 
12

>  <PROTECTED>  (217) 
TRUE

>  <SMILES>  (217) 
N(Cc1(cccc(F)c1))CC(=O)O

>  <INCHIKEY>  (217) 
FYGJHZLHWJYEAC-UHFFFAOYSA-N

$$$$
Ac6c-OMe
     RDKit          2D

 11 11  0  0  0  0  0  0  0  0999 V2000
    0.7167   -1.5975    0.0000 N   0  0  0  0  0  0  0  0  0  0  0  0
   -0.1417   -0.3674    0.0000 C   0  0  0  0  0  0  0  0  0  0  0  0
    1.2187    0.2644    0.0000 C   0  0  0  0  0  0  0  0  0  0  0  0
    1.3518    1.7585    0.0000 O   0  0  0  0  0  0  0  0  0  0  0  0
    2.4461   -0.5979    0.0000 O   0  0  0  0  0  0  0  0  0  0  0  0
    3.8066    0.0338    0.0000 C   0  0  0  0  0  0  0  0  0  0  0  0
   -1.2041   -1.4264    0.0000 C   0  0  0  0  0  0  0  0  0  0  0  0
   -2.6523   -1.0359    0.0000 C   0  0  0  0  0  0  0  0  0  0  0  0
   -3.0383    0.4137    0.0000 C   0  0  0  0  0  0  0  0  0  0  0  0
   -1.9759    1.4726    0.0000 C   0  0  0  0  0  0  0  0  0  0  0  0
   -0.5277    1.0821    0.0000 C   0  0  0  0  0  0  0  0  0  0  0  0
  1  2  1  0
  2  3  1  0
  3  4  2  0
  3  5  1  0
  5  6  1  0
  2  7  1  0
  7  8  1  0
  8  9  1  0
  9 10  1  0
 10 11  1  0
 11  2  1  0
M  END
>  <rName>  (218) 
Ac6c-OMe

>  <PQ_SYMBOL>  (218) 
Ac6c-OMe

>  <FULL_NAME>  (218) 
methyl 1-aminocyclohexane-1-carboxylate

>  <IUPAC_CONDENSED>  (218) 
Ac6c-OMe

>  <IUPAC>  (218) 
methyl 1-aminocyclohexanecarboxylate

>  <TYPE>  (218) 
C-term cap

>  <CLASS>  (218) 
c_cap

>  <ANALOG>  (218) 
X

>  <MOL_WT>  (218) 
157.21299999999997

>  <LOGP>  (218) 
0.8209999999999995

>  <TPSA>  (218) 
52.32000000000001

>  <POPULARITY>  (218) 
9.4

>  <PROTECTED>  (218) 
TRUE

>  <SMILES>  (218) 
NC1(C(=O)OC)CCCCC1

>  <INCHIKEY>  (218) 
KRDTUMQGDPZWMF-UHFFFAOYSA-N

$$$$
H2NCO-Met
     RDKit          2D

 12 11  0  0  0  0  0  0  0  0999 V2000
    4.8960    0.9832    0.0000 C   0  0  0  0  0  0  0  0  0  0  0  0
    3.8477   -0.0896    0.0000 S   0  0  0  0  0  0  0  0  0  0  0  0
    2.3944    0.2818    0.0000 C   0  0  0  0  0  0  0  0  0  0  0  0
    1.3460   -0.7910    0.0000 C   0  0  0  0  0  0  0  0  0  0  0  0
   -0.1072   -0.4195    0.0000 C   0  0  0  0  0  0  0  0  0  0  0  0
   -0.5122    1.0248    0.0000 N   0  0  0  0  0  0  0  0  0  0  0  0
   -1.9654    1.3963    0.0000 C   0  0  0  0  0  0  0  0  0  0  0  0
   -3.0138    0.3234    0.0000 O   0  0  0  0  0  0  0  0  0  0  0  0
   -2.3704    2.8406    0.0000 N   0  0  0  0  0  0  0  0  0  0  0  0
   -1.1556   -1.4924    0.0000 C   0  0  0  0  0  0  0  0  0  0  0  0
   -0.7507   -2.9367    0.0000 O   0  0  0  0  0  0  0  0  0  0  0  0
   -2.6089   -1.1209    0.0000 O   0  0  0  0  0  0  0  0  0  0  0  0
  1  2  1  0
  2  3  1  0
  3  4  1  0
  5  4  1  1
  5  6  1  0
  6  7  1  0
  7  8  2  0
  7  9  1  0
  5 10  1  0
 10 11  2  0
 10 12  1  0
M  END
>  <rName>  (219) 
H2NCO-Met

>  <PQ_SYMBOL>  (219) 
H2NCO-Met

>  <FULL_NAME>  (219) 
(2S)-2-(carbamoylamino)-4-methylsulfanylbutanoic acid

>  <IUPAC_CONDENSED>  (219) 
H2NCO-Met

>  <IUPAC>  (219) 
(2S)-2-(carbamoylamino)-4-(methylsulfanyl)butanoic acid

>  <TYPE>  (219) 
N-term cap

>  <CLASS>  (219) 
n_cap

>  <ANALOG>  (219) 
X

>  <MOL_WT>  (219) 
192.23999999999998

>  <LOGP>  (219) 
-0.13900000000000023

>  <TPSA>  (219) 
92.42

>  <POPULARITY>  (219) 
8.4

>  <PROTECTED>  (219) 
TRUE

>  <SMILES>  (219) 
CSCC[C@H](NC(=O)N)C(=O)O

>  <INCHIKEY>  (219) 
DEWDMTSMCKXBNP-BYPYZUCNSA-N

$$$$
NMe-Aib-
     RDKit          2D

  8  7  0  0  0  0  0  0  0  0999 V2000
    1.6552   -0.6779    0.0000 N   0  0  0  0  0  0  0  0  0  0  0  0
    2.7534    0.3439    0.0000 C   0  0  0  0  0  0  0  0  0  0  0  0
    0.2212   -0.2378    0.0000 C   0  0  0  0  0  0  0  0  0  0  0  0
   -0.2189   -1.6717    0.0000 C   0  0  0  0  0  0  0  0  0  0  0  0
    0.6614    1.1962    0.0000 C   0  0  0  0  0  0  0  0  0  0  0  0
   -1.2127    0.2024    0.0000 C   0  0  0  0  0  0  0  0  0  0  0  0
   -2.3109   -0.8194    0.0000 O   0  0  0  0  0  0  0  0  0  0  0  0
   -1.5485    1.6643    0.0000 O   0  0  0  0  0  0  0  0  0  0  0  0
  1  2  1  0
  1  3  1  0
  3  4  1  0
  3  5  1  0
  3  6  1  0
  6  7  2  0
  6  8  1  0
M  END
>  <rName>  (220) 
NMe-Aib-

>  <PQ_SYMBOL>  (220) 
NMe-Aib-

>  <FULL_NAME>  (220) 
methyl alpha-aminoisobutyric acid (2-aminoalanine)

>  <IUPAC_CONDENSED>  (220) 
Me-Aib

>  <IUPAC>  (220) 
2-methyl-2-(methylamino)propanoic acid

>  <TYPE>  (220) 
N-term cap

>  <CLASS>  (220) 
n_cap

>  <ANALOG>  (220) 
X

>  <MOL_WT>  (220) 
117.14799999999998

>  <LOGP>  (220) 
0.06899999999999967

>  <TPSA>  (220) 
49.33

>  <POPULARITY>  (220) 
19

>  <PROTECTED>  (220) 
TRUE

>  <SMILES>  (220) 
N(C)C(C)(C)C(=O)O

>  <INCHIKEY>  (220) 
DLAMVQGYEVKIRE-UHFFFAOYSA-N

$$$$
S-3-aminopyrrolidine-25-dione
     RDKit          2D

  8  8  0  0  0  0  0  0  0  0999 V2000
   -2.0314   -1.6317    0.0000 N   0  0  0  0  0  0  0  0  0  0  0  0
   -0.8178   -0.7500    0.0000 C   0  0  0  0  0  0  0  0  0  0  0  0
    0.6088   -1.2135    0.0000 C   0  0  0  0  0  0  0  0  0  0  0  0
    1.4904    0.0000    0.0000 C   0  0  0  0  0  0  0  0  0  0  0  0
    0.6088    1.2135    0.0000 N   0  0  0  0  0  0  0  0  0  0  0  0
   -0.8178    0.7500    0.0000 C   0  0  0  0  0  0  0  0  0  0  0  0
   -2.0314    1.6317    0.0000 O   0  0  0  0  0  0  0  0  0  0  0  0
    2.9904    0.0000    0.0000 O   0  0  0  0  0  0  0  0  0  0  0  0
  2  1  1  6
  2  3  1  0
  3  4  1  0
  4  5  1  0
  5  6  1  0
  6  7  2  0
  4  8  2  0
  6  2  1  0
M  END
>  <rName>  (221) 
S-3-aminopyrrolidine-25-dione

>  <PQ_SYMBOL>  (221) 
S-3-aminopyrrolidine-25-dione

>  <FULL_NAME>  (221) 
(3S)-3-aminopyrrolidine-2,5-dione

>  <IUPAC_CONDENSED>  (221) 
S-3-aminopyrrolidine-2,5-dione

>  <IUPAC>  (221) 
(3S)-3-aminopyrrolidine-2,5-dione

>  <TYPE>  (221) 
C-term cap

>  <CLASS>  (221) 
c_cap

>  <ANALOG>  (221) 
X

>  <MOL_WT>  (221) 
114.10399999999998

>  <LOGP>  (221) 
-1.6397999999999997

>  <TPSA>  (221) 
72.19

>  <POPULARITY>  (221) 
28.4

>  <PROTECTED>  (221) 
TRUE

>  <SMILES>  (221) 
N[C@H]1CC(NC1=O)=O

>  <INCHIKEY>  (221) 
YDNMHDRXNOHCJH-REOHCLBHSA-N

$$$$
Ac4c-OMe
     RDKit          2D

  9  9  0  0  0  0  0  0  0  0999 V2000
   -0.0962   -1.6943    0.0000 N   0  0  0  0  0  0  0  0  0  0  0  0
   -0.6818   -0.3133    0.0000 C   0  0  0  0  0  0  0  0  0  0  0  0
   -2.0628   -0.8989    0.0000 C   0  0  0  0  0  0  0  0  0  0  0  0
   -2.6483    0.4821    0.0000 C   0  0  0  0  0  0  0  0  0  0  0  0
   -1.2673    1.0676    0.0000 C   0  0  0  0  0  0  0  0  0  0  0  0
    0.6992    0.2722    0.0000 C   0  0  0  0  0  0  0  0  0  0  0  0
    0.8826    1.7610    0.0000 O   0  0  0  0  0  0  0  0  0  0  0  0
    1.8968   -0.6310    0.0000 O   0  0  0  0  0  0  0  0  0  0  0  0
    3.2778   -0.0454    0.0000 C   0  0  0  0  0  0  0  0  0  0  0  0
  1  2  1  0
  2  3  1  0
  3  4  1  0
  4  5  1  0
  2  6  1  0
  6  7  2  0
  6  8  1  0
  8  9  1  0
  5  2  1  0
M  END
>  <rName>  (222) 
Ac4c-OMe

>  <PQ_SYMBOL>  (222) 
Ac4c-OMe

>  <FULL_NAME>  (222) 
methyl 1-aminocyclobutane-1-carboxylate

>  <IUPAC_CONDENSED>  (222) 
Ac4c-OMe

>  <IUPAC>  (222) 
methyl 1-aminocyclobutanecarboxylate

>  <TYPE>  (222) 
C-term cap

>  <CLASS>  (222) 
c_cap

>  <ANALOG>  (222) 
X

>  <MOL_WT>  (222) 
129.159

>  <LOGP>  (222) 
0.040799999999999725

>  <TPSA>  (222) 
52.32000000000001

>  <POPULARITY>  (222) 
7.2

>  <PROTECTED>  (222) 
TRUE

>  <SMILES>  (222) 
NC1(CCC1)C(=O)OC

>  <INCHIKEY>  (222) 
SGXOPTPGZBLQAY-UHFFFAOYSA-N

$$$$
Ala-OEtPh
     RDKit          2D

 14 14  0  0  0  0  0  0  0  0999 V2000
   -4.5865   -1.6548    0.0000 N   0  0  0  0  0  0  0  0  0  0  0  0
   -4.3500   -0.1735    0.0000 C   0  0  0  0  0  0  0  0  0  0  0  0
   -5.5146    0.7719    0.0000 C   0  0  0  0  0  0  0  0  0  0  0  0
   -2.9490    0.3623    0.0000 C   0  0  0  0  0  0  0  0  0  0  0  0
   -2.7125    1.8435    0.0000 O   0  0  0  0  0  0  0  0  0  0  0  0
   -1.7844   -0.5831    0.0000 O   0  0  0  0  0  0  0  0  0  0  0  0
   -0.3834   -0.0473    0.0000 C   0  0  0  0  0  0  0  0  0  0  0  0
    0.7812   -0.9927    0.0000 C   0  0  0  0  0  0  0  0  0  0  0  0
    2.1822   -0.4569    0.0000 C   0  0  0  0  0  0  0  0  0  0  0  0
    2.4187    1.0244    0.0000 C   0  0  0  0  0  0  0  0  0  0  0  0
    3.8197    1.5602    0.0000 C   0  0  0  0  0  0  0  0  0  0  0  0
    4.9842    0.6148    0.0000 C   0  0  0  0  0  0  0  0  0  0  0  0
    4.7478   -0.8664    0.0000 C   0  0  0  0  0  0  0  0  0  0  0  0
    3.3467   -1.4023    0.0000 C   0  0  0  0  0  0  0  0  0  0  0  0
  1  2  1  0
  2  3  1  1
  2  4  1  0
  4  5  2  0
  4  6  1  0
  6  7  1  0
  7  8  1  0
  8  9  1  0
  9 10  2  0
 10 11  1  0
 11 12  2  0
 12 13  1  0
 13 14  2  0
 14  9  1  0
M  END
>  <rName>  (223) 
Ala-OEtPh

>  <PQ_SYMBOL>  (223) 
Ala-OEtPh

>  <FULL_NAME>  (223) 
2-phenylethyl (2S)-2-aminopropanoate

>  <IUPAC_CONDENSED>  (223) 
Ala-OEtPh

>  <IUPAC>  (223) 
2-phenylethyl (2S)-2-aminopropanoate

>  <TYPE>  (223) 
C-term cap

>  <CLASS>  (223) 
c_cap

>  <ANALOG>  (223) 
X

>  <MOL_WT>  (223) 
193.246

>  <LOGP>  (223) 
1.1194999999999993

>  <TPSA>  (223) 
52.32000000000001

>  <POPULARITY>  (223) 
10.1

>  <PROTECTED>  (223) 
TRUE

>  <SMILES>  (223) 
N[C@@H](C)C(=O)OCCc1ccccc1

>  <INCHIKEY>  (223) 
FUIKOCBJCDGKFN-VIFPVBQESA-N

$$$$
Phe-OMe
     RDKit          2D

 13 13  0  0  0  0  0  0  0  0999 V2000
   -0.8522    1.6213    0.0000 N   0  0  0  0  0  0  0  0  0  0  0  0
   -1.1939    0.1607    0.0000 C   0  0  0  0  0  0  0  0  0  0  0  0
   -2.6296   -0.2737    0.0000 C   0  0  0  0  0  0  0  0  0  0  0  0
   -2.9712   -1.7343    0.0000 O   0  0  0  0  0  0  0  0  0  0  0  0
   -3.7237    0.7525    0.0000 O   0  0  0  0  0  0  0  0  0  0  0  0
   -5.1594    0.3180    0.0000 C   0  0  0  0  0  0  0  0  0  0  0  0
   -0.0998   -0.8654    0.0000 C   0  0  0  0  0  0  0  0  0  0  0  0
    1.3359   -0.4310    0.0000 C   0  0  0  0  0  0  0  0  0  0  0  0
    1.6775    1.0296    0.0000 C   0  0  0  0  0  0  0  0  0  0  0  0
    3.1133    1.4640    0.0000 C   0  0  0  0  0  0  0  0  0  0  0  0
    4.2073    0.4379    0.0000 C   0  0  0  0  0  0  0  0  0  0  0  0
    3.8657   -1.0227    0.0000 C   0  0  0  0  0  0  0  0  0  0  0  0
    2.4300   -1.4571    0.0000 C   0  0  0  0  0  0  0  0  0  0  0  0
  2  1  1  1
  2  3  1  0
  3  4  2  0
  3  5  1  0
  5  6  1  0
  2  7  1  0
  7  8  1  0
  8  9  2  0
  9 10  1  0
 10 11  2  0
 11 12  1  0
 12 13  2  0
 13  8  1  0
M  END
>  <rName>  (224) 
Phe-OMe

>  <PQ_SYMBOL>  (224) 
Phe-OMe

>  <FULL_NAME>  (224) 
L-Phenylalanine methyl ester

>  <IUPAC_CONDENSED>  (224) 
Phe-OMe

>  <IUPAC>  (224) 
methyl (2S)-2-amino-3-phenylpropanoate

>  <TYPE>  (224) 
C-term cap

>  <CLASS>  (224) 
c_cap

>  <ANALOG>  (224) 
X

>  <MOL_WT>  (224) 
179.21900000000002

>  <LOGP>  (224) 
0.7293999999999992

>  <TPSA>  (224) 
52.32000000000001

>  <POPULARITY>  (224) 
30.5

>  <PROTECTED>  (224) 
TRUE

>  <SMILES>  (224) 
N[C@H](C(=O)OC)Cc1ccccc1

>  <INCHIKEY>  (224) 
VSDUZFOSJDMAFZ-VIFPVBQESA-N

$$$$
Gly-al
     RDKit          2D

  4  3  0  0  0  0  0  0  0  0999 V2000
    1.9796   -0.1365    0.0000 N   0  0  0  0  0  0  0  0  0  0  0  0
    0.5994    0.4508    0.0000 C   0  0  0  0  0  0  0  0  0  0  0  0
   -0.5994   -0.4508    0.0000 C   0  0  0  0  0  0  0  0  0  0  0  0
   -1.9796    0.1365    0.0000 O   0  0  0  0  0  0  0  0  0  0  0  0
  1  2  1  0
  2  3  1  0
  3  4  2  0
M  END
>  <rName>  (225) 
Gly-al

>  <PQ_SYMBOL>  (225) 
Gly-al

>  <FULL_NAME>  (225) 
2-aminoacetaldehyde

>  <IUPAC_CONDENSED>  (225) 
Gly-al

>  <IUPAC>  (225) 
2-aminoethanal

>  <TYPE>  (225) 
C-term cap

>  <CLASS>  (225) 
c_cap

>  <ANALOG>  (225) 
X

>  <MOL_WT>  (225) 
59.068

>  <LOGP>  (225) 
-0.8560000000000001

>  <TPSA>  (225) 
43.09

>  <POPULARITY>  (225) 
32.9

>  <PROTECTED>  (225) 
FALSE

>  <SMILES>  (225) 
NCC=O

>  <INCHIKEY>  (225) 
LYIIBVSRGJSHAV-UHFFFAOYSA-N

$$$$
NMe2Val
     RDKit          2D

 10  9  0  0  0  0  0  0  0  0999 V2000
   -1.2990   -2.2500    0.0000 C   0  0  0  0  0  0  0  0  0  0  0  0
    0.0000   -1.5000    0.0000 N   0  0  0  0  0  0  0  0  0  0  0  0
    1.2990   -2.2500    0.0000 C   0  0  0  0  0  0  0  0  0  0  0  0
    0.0000    0.0000    0.0000 C   0  0  0  0  0  0  0  0  0  0  0  0
    1.2990    0.7500    0.0000 C   0  0  0  0  0  0  0  0  0  0  0  0
    1.2990    2.2500    0.0000 C   0  0  0  0  0  0  0  0  0  0  0  0
    2.5981    0.0000    0.0000 C   0  0  0  0  0  0  0  0  0  0  0  0
   -1.2990    0.7500    0.0000 C   0  0  0  0  0  0  0  0  0  0  0  0
   -2.5981    0.0000    0.0000 O   0  0  0  0  0  0  0  0  0  0  0  0
   -1.2990    2.2500    0.0000 O   0  0  0  0  0  0  0  0  0  0  0  0
  1  2  1  0
  2  3  1  0
  2  4  1  0
  4  5  1  6
  5  6  1  0
  5  7  1  0
  4  8  1  0
  8  9  2  0
  8 10  1  0
M  END
>  <rName>  (226) 
NMe2Val

>  <PQ_SYMBOL>  (226) 
NMe2Val

>  <FULL_NAME>  (226) 
methyl N-Methyl-Valine

>  <IUPAC_CONDENSED>  (226) 
N(Me2)Val

>  <IUPAC>  (226) 
(2S)-2-(dimethylamino)-3-methylbutanoic acid

>  <TYPE>  (226) 
N-term cap

>  <CLASS>  (226) 
n_cap

>  <ANALOG>  (226) 
X

>  <MOL_WT>  (226) 
145.202

>  <LOGP>  (226) 
0.6572

>  <TPSA>  (226) 
40.540000000000006

>  <POPULARITY>  (226) 
16.6

>  <PROTECTED>  (226) 
TRUE

>  <SMILES>  (226) 
CN(C)[C@@H](C(C)C)C(=O)O

>  <INCHIKEY>  (226) 
APGLTERDKORUHK-LURJTMIESA-N

$$$$
Ala-OBn
     RDKit          2D

 13 13  0  0  0  0  0  0  0  0999 V2000
   -3.3050    1.9837    0.0000 N   0  0  0  0  0  0  0  0  0  0  0  0
   -3.5634    0.5061    0.0000 C   0  0  0  0  0  0  0  0  0  0  0  0
   -4.9723   -0.0089    0.0000 C   0  0  0  0  0  0  0  0  0  0  0  0
   -2.4130   -0.4565    0.0000 C   0  0  0  0  0  0  0  0  0  0  0  0
   -2.6715   -1.9340    0.0000 O   0  0  0  0  0  0  0  0  0  0  0  0
   -1.0042    0.0585    0.0000 O   0  0  0  0  0  0  0  0  0  0  0  0
    0.1462   -0.9041    0.0000 C   0  0  0  0  0  0  0  0  0  0  0  0
    1.5550   -0.3891    0.0000 C   0  0  0  0  0  0  0  0  0  0  0  0
    1.8135    1.0885    0.0000 C   0  0  0  0  0  0  0  0  0  0  0  0
    3.2223    1.6034    0.0000 C   0  0  0  0  0  0  0  0  0  0  0  0
    4.3727    0.6408    0.0000 C   0  0  0  0  0  0  0  0  0  0  0  0
    4.1143   -0.8367    0.0000 C   0  0  0  0  0  0  0  0  0  0  0  0
    2.7054   -1.3517    0.0000 C   0  0  0  0  0  0  0  0  0  0  0  0
  1  2  1  0
  2  3  1  6
  2  4  1  0
  4  5  2  0
  4  6  1  0
  6  7  1  0
  7  8  1  0
  8  9  2  0
  9 10  1  0
 10 11  2  0
 11 12  1  0
 12 13  2  0
 13  8  1  0
M  END
>  <rName>  (227) 
Ala-OBn

>  <PQ_SYMBOL>  (227) 
Ala-OBn

>  <FULL_NAME>  (227) 
L-Alanine benzyl ester

>  <IUPAC_CONDENSED>  (227) 
Ala-OBn

>  <IUPAC>  (227) 
benzyl (2S)-2-aminopropanoate

>  <TYPE>  (227) 
C-term cap

>  <CLASS>  (227) 
c_cap

>  <ANALOG>  (227) 
X

>  <MOL_WT>  (227) 
179.219

>  <LOGP>  (227) 
1.0769999999999995

>  <TPSA>  (227) 
52.32000000000001

>  <POPULARITY>  (227) 
20.3

>  <PROTECTED>  (227) 
TRUE

>  <SMILES>  (227) 
N[C@@H](C)C(=O)OCc1ccccc1

>  <INCHIKEY>  (227) 
YGYLYUIRSJSFJS-QMMMGPOBSA-N

$$$$
-Phe_2OH
     RDKit          2D

 13 13  0  0  0  0  0  0  0  0999 V2000
   -1.4864    1.8099    0.0000 N   0  0  0  0  0  0  0  0  0  0  0  0
   -1.7669    0.3364    0.0000 C   0  0  0  0  0  0  0  0  0  0  0  0
   -3.1833   -0.1575    0.0000 C   0  0  0  0  0  0  0  0  0  0  0  0
   -3.4638   -1.6310    0.0000 O   0  0  0  0  0  0  0  0  0  0  0  0
   -4.3192    0.8222    0.0000 O   0  0  0  0  0  0  0  0  0  0  0  0
   -0.6311   -0.6433    0.0000 C   0  0  0  0  0  0  0  0  0  0  0  0
    0.7853   -0.1495    0.0000 C   0  0  0  0  0  0  0  0  0  0  0  0
    1.0658    1.3241    0.0000 C   0  0  0  0  0  0  0  0  0  0  0  0
    2.4822    1.8179    0.0000 C   0  0  0  0  0  0  0  0  0  0  0  0
    3.6181    0.8382    0.0000 C   0  0  0  0  0  0  0  0  0  0  0  0
    3.3376   -0.6353    0.0000 C   0  0  0  0  0  0  0  0  0  0  0  0
    1.9212   -1.1292    0.0000 C   0  0  0  0  0  0  0  0  0  0  0  0
    1.6407   -2.6027    0.0000 O   0  0  0  0  0  0  0  0  0  0  0  0
  2  1  1  1
  2  3  1  0
  3  4  2  0
  3  5  1  0
  2  6  1  0
  6  7  1  0
  7  8  2  0
  8  9  1  0
  9 10  2  0
 10 11  1  0
 11 12  2  0
 12 13  1  0
 12  7  1  0
M  END
>  <rName>  (228) 
-Phe_2OH

>  <PQ_SYMBOL>  (228) 
-Phe_2OH

>  <FULL_NAME>  (228) 
(2S)-2-amino-3-(2-hydroxyphenyl)propanoic acid

>  <IUPAC_CONDENSED>  (228) 
Phe(2-OH)

>  <IUPAC>  (228) 
(2S)-2-amino-3-(2-hydroxyphenyl)propanoic acid

>  <TYPE>  (228) 
C-term cap

>  <CLASS>  (228) 
c_cap

>  <ANALOG>  (228) 
X

>  <MOL_WT>  (228) 
181.191

>  <LOGP>  (228) 
0.3465999999999994

>  <TPSA>  (228) 
83.55000000000001

>  <POPULARITY>  (228) 
8.1

>  <PROTECTED>  (228) 
TRUE

>  <SMILES>  (228) 
N[C@H](C(=O)O)Cc1ccccc1O

>  <INCHIKEY>  (228) 
WRFPVMFCRNYQNR-ZETCQYMHSA-N

$$$$
Ac8c-OMe
     RDKit          2D

 13 13  0  0  0  0  0  0  0  0999 V2000
    1.3634   -1.5324    0.0000 N   0  0  0  0  0  0  0  0  0  0  0  0
    0.3859   -0.3946    0.0000 C   0  0  0  0  0  0  0  0  0  0  0  0
    1.7380    0.2551    0.0000 C   0  0  0  0  0  0  0  0  0  0  0  0
    1.8513    1.7508    0.0000 O   0  0  0  0  0  0  0  0  0  0  0  0
    2.9766   -0.5910    0.0000 O   0  0  0  0  0  0  0  0  0  0  0  0
    4.3286    0.0587    0.0000 C   0  0  0  0  0  0  0  0  0  0  0  0
   -0.4601   -1.6332    0.0000 C   0  0  0  0  0  0  0  0  0  0  0  0
   -1.9342   -1.9108    0.0000 C   0  0  0  0  0  0  0  0  0  0  0  0
   -3.1728   -1.0648    0.0000 C   0  0  0  0  0  0  0  0  0  0  0  0
   -3.4504    0.4093    0.0000 C   0  0  0  0  0  0  0  0  0  0  0  0
   -2.6044    1.6479    0.0000 C   0  0  0  0  0  0  0  0  0  0  0  0
   -1.1303    1.9255    0.0000 C   0  0  0  0  0  0  0  0  0  0  0  0
    0.1083    1.0795    0.0000 C   0  0  0  0  0  0  0  0  0  0  0  0
  1  2  1  0
  2  3  1  0
  3  4  2  0
  3  5  1  0
  5  6  1  0
  2  7  1  0
  7  8  1  0
  8  9  1  0
  9 10  1  0
 10 11  1  0
 11 12  1  0
 12 13  1  0
 13  2  1  0
M  END
>  <rName>  (229) 
Ac8c-OMe

>  <PQ_SYMBOL>  (229) 
Ac8c-OMe

>  <FULL_NAME>  (229) 
methyl 1-aminocyclooctane-1-carboxylate

>  <IUPAC_CONDENSED>  (229) 
Ac8c-OMe

>  <IUPAC>  (229) 
methyl 1-aminocyclooctanecarboxylate

>  <TYPE>  (229) 
C-term cap

>  <CLASS>  (229) 
c_cap

>  <ANALOG>  (229) 
X

>  <MOL_WT>  (229) 
185.26699999999994

>  <LOGP>  (229) 
1.6011999999999995

>  <TPSA>  (229) 
52.32000000000001

>  <POPULARITY>  (229) 
6.4

>  <PROTECTED>  (229) 
TRUE

>  <SMILES>  (229) 
NC1(C(=O)OC)CCCCCCC1

>  <INCHIKEY>  (229) 
LLDGFHBTNMXXOL-UHFFFAOYSA-N

$$$$
D-Pro-OEt
     RDKit          2D

 10 10  0  0  0  0  0  0  0  0999 V2000
   -1.3421   -1.2892    0.0000 N   0  0  0  0  0  0  0  0  0  0  0  0
   -0.8679    0.1339    0.0000 C   0  0  0  0  0  0  0  0  0  0  0  0
   -2.0749    1.0246    0.0000 C   0  0  0  0  0  0  0  0  0  0  0  0
   -3.2949    0.1520    0.0000 C   0  0  0  0  0  0  0  0  0  0  0  0
   -2.8421   -1.2780    0.0000 C   0  0  0  0  0  0  0  0  0  0  0  0
    0.5621    0.5868    0.0000 C   0  0  0  0  0  0  0  0  0  0  0  0
    0.8849    2.0516    0.0000 O   0  0  0  0  0  0  0  0  0  0  0  0
    1.6693   -0.4252    0.0000 O   0  0  0  0  0  0  0  0  0  0  0  0
    3.0993    0.0277    0.0000 C   0  0  0  0  0  0  0  0  0  0  0  0
    4.2065   -0.9843    0.0000 C   0  0  0  0  0  0  0  0  0  0  0  0
  1  2  1  0
  2  3  1  0
  3  4  1  0
  4  5  1  0
  2  6  1  6
  6  7  2  0
  6  8  1  0
  8  9  1  0
  9 10  1  0
  5  1  1  0
M  END
>  <rName>  (230) 
D-Pro-OEt

>  <PQ_SYMBOL>  (230) 
D-Pro-OEt

>  <FULL_NAME>  (230) 
ethyl (2R)-pyrrolidine-2-carboxylate

>  <IUPAC_CONDENSED>  (230) 
D-Pro-OEt

>  <IUPAC>  (230) 
ethyl (2R)-pyrrolidine-2-carboxylate

>  <TYPE>  (230) 
C-term cap

>  <CLASS>  (230) 
c_cap

>  <ANALOG>  (230) 
X

>  <MOL_WT>  (230) 
143.18599999999998

>  <LOGP>  (230) 
0.3014999999999999

>  <TPSA>  (230) 
38.33

>  <POPULARITY>  (230) 
10.1

>  <PROTECTED>  (230) 
TRUE

>  <SMILES>  (230) 
N1[C@H](CCC1)C(=O)OCC

>  <INCHIKEY>  (230) 
QPNJHVDIRZNKOX-ZCFIWIBFSA-N

$$$$
Isox_3OMe
     RDKit          2D

 10 10  0  0  0  0  0  0  0  0999 V2000
   -4.0834    0.0049    0.0000 C   0  0  0  0  0  0  0  0  0  0  0  0
   -2.8508   -0.8499    0.0000 O   0  0  0  0  0  0  0  0  0  0  0  0
   -1.4942   -0.2099    0.0000 C   0  0  0  0  0  0  0  0  0  0  0  0
   -0.1790   -0.9312    0.0000 C   0  0  0  0  0  0  0  0  0  0  0  0
    0.9134    0.0968    0.0000 C   0  0  0  0  0  0  0  0  0  0  0  0
    0.2734    1.4534    0.0000 O   0  0  0  0  0  0  0  0  0  0  0  0
   -1.2146    1.2638    0.0000 N   0  0  0  0  0  0  0  0  0  0  0  0
    2.3871   -0.1828    0.0000 C   0  0  0  0  0  0  0  0  0  0  0  0
    3.3661    0.9537    0.0000 O   0  0  0  0  0  0  0  0  0  0  0  0
    2.8819   -1.5989    0.0000 O   0  0  0  0  0  0  0  0  0  0  0  0
  1  2  1  0
  2  3  1  0
  3  4  1  0
  4  5  2  0
  5  6  1  0
  6  7  1  0
  5  8  1  0
  8  9  2  0
  8 10  1  0
  7  3  2  0
M  END
>  <rName>  (231) 
Isox_3OMe

>  <PQ_SYMBOL>  (231) 
Isox_3OMe

>  <FULL_NAME>  (231) 
3-methoxy-isoxazole-5-carboxylic acid

>  <IUPAC_CONDENSED>  (231) 
Isox(3-OMe)

>  <IUPAC>  (231) 
3-methoxyisoxazole-5-carboxylic acid

>  <TYPE>  (231) 
N-term cap

>  <CLASS>  (231) 
n_cap

>  <ANALOG>  (231) 
X

>  <MOL_WT>  (231) 
143.098

>  <LOGP>  (231) 
0.38139999999999996

>  <TPSA>  (231) 
72.56

>  <POPULARITY>  (231) 
6.4

>  <PROTECTED>  (231) 
TRUE

>  <SMILES>  (231) 
COc1cc(on1)C(=O)O

>  <INCHIKEY>  (231) 
WMMGHBYADJNEOC-UHFFFAOYSA-N

$$$$
3CF3-tetrahydroindazol-1-acetyl
     RDKit          2D

 17 18  0  0  0  0  0  0  0  0999 V2000
    2.7491   -2.5918    0.0000 C   0  0  0  0  0  0  0  0  0  0  0  0
    1.5264   -3.4607    0.0000 C   0  0  0  0  0  0  0  0  0  0  0  0
    0.1625   -2.8363    0.0000 C   0  0  0  0  0  0  0  0  0  0  0  0
    0.0214   -1.3430    0.0000 C   0  0  0  0  0  0  0  0  0  0  0  0
   -1.1828   -0.4486    0.0000 N   0  0  0  0  0  0  0  0  0  0  0  0
   -0.7044    0.9730    0.0000 N   0  0  0  0  0  0  0  0  0  0  0  0
    0.7955    0.9573    0.0000 C   0  0  0  0  0  0  0  0  0  0  0  0
    1.2441   -0.4741    0.0000 C   0  0  0  0  0  0  0  0  0  0  0  0
    2.6079   -1.0985    0.0000 C   0  0  0  0  0  0  0  0  0  0  0  0
    1.6898    2.1615    0.0000 C   0  0  0  0  0  0  0  0  0  0  0  0
    2.5842    3.3658    0.0000 F   0  0  0  0  0  0  0  0  0  0  0  0
    0.4856    3.0559    0.0000 F   0  0  0  0  0  0  0  0  0  0  0  0
    2.8941    1.2672    0.0000 F   0  0  0  0  0  0  0  0  0  0  0  0
   -2.6142   -0.8972    0.0000 C   0  0  0  0  0  0  0  0  0  0  0  0
   -3.7184    0.1181    0.0000 C   0  0  0  0  0  0  0  0  0  0  0  0
   -3.3911    1.5820    0.0000 O   0  0  0  0  0  0  0  0  0  0  0  0
   -5.1497   -0.3305    0.0000 O   0  0  0  0  0  0  0  0  0  0  0  0
  1  2  1  0
  2  3  1  0
  3  4  1  0
  4  5  1  0
  5  6  1  0
  6  7  2  0
  7  8  1  0
  8  9  1  0
  7 10  1  0
 10 11  1  0
 10 12  1  0
 10 13  1  0
  5 14  1  0
 14 15  1  0
 15 16  2  0
 15 17  1  0
  8  4  2  0
  9  1  1  0
M  END
>  <rName>  (232) 
3CF3-tetrahydroindazol-1-acetyl

>  <PQ_SYMBOL>  (232) 
3CF3-tetrahydroindazol-1-acetyl

>  <FULL_NAME>  (232) 
[3-(trifluoromethyl)-4,5,6,7-tetrahydro-1H-indazol-1-yl]acetic acid

>  <IUPAC_CONDENSED>  (232) 
3CF3-tetrahydroindazol-1-acetyl

>  <IUPAC>  (232) 
2-(9-(trifluoromethyl)-7,8-diazabicyclo[4.3.0]nona-1(6),8-dien-7-yl)acetic acid

>  <TYPE>  (232) 
N-term cap

>  <CLASS>  (232) 
n_cap

>  <ANALOG>  (232) 
X

>  <MOL_WT>  (232) 
248.20399999999995

>  <LOGP>  (232) 
1.8653

>  <TPSA>  (232) 
55.120000000000005

>  <POPULARITY>  (232) 
10

>  <PROTECTED>  (232) 
FALSE

>  <SMILES>  (232) 
C2CCc1n(nc(c1C2)C(F)(F)F)CC(=O)O

>  <INCHIKEY>  (232) 
NOFFCWXIBYKMBU-UHFFFAOYSA-N

$$$$
3S4S-amino-4-Me-dihydropyran-2-one
     RDKit          2D

  9  9  0  0  0  0  0  0  0  0999 V2000
    0.0000   -2.3333    0.0000 N   0  0  0  0  0  0  0  0  0  0  0  0
    0.0000   -0.8333    0.0000 C   0  0  0  0  0  0  0  0  0  0  0  0
   -1.2990   -0.0833    0.0000 C   0  0  0  0  0  0  0  0  0  0  0  0
   -2.5981   -0.8333    0.0000 O   0  0  0  0  0  0  0  0  0  0  0  0
   -1.2990    1.4167    0.0000 O   0  0  0  0  0  0  0  0  0  0  0  0
   -0.0000    2.1667    0.0000 C   0  0  0  0  0  0  0  0  0  0  0  0
    1.2990    1.4167    0.0000 C   0  0  0  0  0  0  0  0  0  0  0  0
    1.2990   -0.0833    0.0000 C   0  0  0  0  0  0  0  0  0  0  0  0
    2.5981   -0.8333    0.0000 C   0  0  0  0  0  0  0  0  0  0  0  0
  2  1  1  6
  2  3  1  0
  3  4  2  0
  3  5  1  0
  5  6  1  0
  6  7  2  0
  7  8  1  0
  8  9  1  6
  8  2  1  0
M  END
>  <rName>  (233) 
3S4S-amino-4-Me-dihydropyran-2-one

>  <PQ_SYMBOL>  (233) 
3S4S-amino-4-Me-dihydropyran-2-one

>  <FULL_NAME>  (233) 
(3S,4S)-3-amino-4-methyl-3,4-dihydro-2H-pyran-2-one

>  <IUPAC_CONDENSED>  (233) 
3S,4S-amino-4-Me-dihydropyran-2-one

>  <IUPAC>  (233) 
(3S,4S)-3-amino-4-methyl-1-oxacyclohex-5-en-2-one

>  <TYPE>  (233) 
C-term cap

>  <CLASS>  (233) 
c_cap

>  <ANALOG>  (233) 
X

>  <MOL_WT>  (233) 
127.14299999999997

>  <LOGP>  (233) 
0.020299999999999985

>  <TPSA>  (233) 
52.32000000000001

>  <POPULARITY>  (233) 
0.7

>  <PROTECTED>  (233) 
FALSE

>  <SMILES>  (233) 
N[C@@H]1C(=O)OC=C[C@@H]1C

>  <INCHIKEY>  (233) 
SBDJAXOULWQEQY-WHFBIAKZSA-N

$$$$
Orn_Bz_3I
     RDKit          2D

 18 18  0  0  0  0  0  0  0  0999 V2000
   -4.7117    1.9547    0.0000 N   0  0  0  0  0  0  0  0  0  0  0  0
   -4.8152    0.4583    0.0000 C   0  0  0  0  0  0  0  0  0  0  0  0
   -3.5710   -0.3795    0.0000 C   0  0  0  0  0  0  0  0  0  0  0  0
   -2.2233    0.2791    0.0000 C   0  0  0  0  0  0  0  0  0  0  0  0
   -0.9791   -0.5588    0.0000 C   0  0  0  0  0  0  0  0  0  0  0  0
    0.3686    0.0998    0.0000 N   0  0  0  0  0  0  0  0  0  0  0  0
    1.6128   -0.7380    0.0000 C   0  0  0  0  0  0  0  0  0  0  0  0
    1.5093   -2.2345    0.0000 O   0  0  0  0  0  0  0  0  0  0  0  0
    2.9605   -0.0795    0.0000 C   0  0  0  0  0  0  0  0  0  0  0  0
    3.0640    1.4170    0.0000 C   0  0  0  0  0  0  0  0  0  0  0  0
    4.4117    2.0756    0.0000 C   0  0  0  0  0  0  0  0  0  0  0  0
    5.6559    1.2377    0.0000 C   0  0  0  0  0  0  0  0  0  0  0  0
    5.5524   -0.2587    0.0000 C   0  0  0  0  0  0  0  0  0  0  0  0
    6.7966   -1.0965    0.0000 I   0  0  0  0  0  0  0  0  0  0  0  0
    4.2047   -0.9173    0.0000 C   0  0  0  0  0  0  0  0  0  0  0  0
   -6.1629   -0.2003    0.0000 C   0  0  0  0  0  0  0  0  0  0  0  0
   -6.2663   -1.6967    0.0000 O   0  0  0  0  0  0  0  0  0  0  0  0
   -7.4070    0.6376    0.0000 O   0  0  0  0  0  0  0  0  0  0  0  0
  2  1  1  1
  2  3  1  0
  3  4  1  0
  4  5  1  0
  5  6  1  0
  6  7  1  0
  7  8  2  0
  7  9  1  0
  9 10  2  0
 10 11  1  0
 11 12  2  0
 12 13  1  0
 13 14  1  0
 13 15  2  0
  2 16  1  0
 16 17  2  0
 16 18  1  0
 15  9  1  0
M  END
>  <rName>  (234) 
Orn_Bz_3I

>  <PQ_SYMBOL>  (234) 
Orn_Bz_3I

>  <FULL_NAME>  (234) 
N~5~-(3-iodobenzoyl)-L-ornithine

>  <IUPAC_CONDENSED>  (234) 
Orn(Bz(3-I))

>  <IUPAC>  (234) 
(2S)-2-amino-5-(3-iodophenylcarbonylamino)pentanoic acid

>  <TYPE>  (234) 
N-term cap

>  <CLASS>  (234) 
n_cap

>  <ANALOG>  (234) 
X

>  <MOL_WT>  (234) 
362.16700000000003

>  <LOGP>  (234) 
1.2130999999999996

>  <TPSA>  (234) 
92.42

>  <POPULARITY>  (234) 
0.5

>  <PROTECTED>  (234) 
FALSE

>  <SMILES>  (234) 
N[C@@H](CCCNC(=O)c1(cccc(I)c1))C(=O)O

>  <INCHIKEY>  (234) 
ZXXSCSOQVZWLAM-JTQLQIEISA-N

$$$$
D-Dap_homovanilloyl
     RDKit          2D

 19 19  0  0  0  0  0  0  0  0999 V2000
   -4.8561   -2.0243    0.0000 N   0  0  0  0  0  0  0  0  0  0  0  0
   -4.7607   -0.5273    0.0000 C   0  0  0  0  0  0  0  0  0  0  0  0
   -3.4166    0.1386    0.0000 C   0  0  0  0  0  0  0  0  0  0  0  0
   -2.1679   -0.6925    0.0000 N   0  0  0  0  0  0  0  0  0  0  0  0
   -0.8238   -0.0266    0.0000 C   0  0  0  0  0  0  0  0  0  0  0  0
   -0.7284    1.4703    0.0000 O   0  0  0  0  0  0  0  0  0  0  0  0
    0.4249   -0.8577    0.0000 C   0  0  0  0  0  0  0  0  0  0  0  0
    1.7690   -0.1918    0.0000 C   0  0  0  0  0  0  0  0  0  0  0  0
    1.8644    1.3052    0.0000 C   0  0  0  0  0  0  0  0  0  0  0  0
    3.2085    1.9710    0.0000 C   0  0  0  0  0  0  0  0  0  0  0  0
    4.4572    1.1400    0.0000 C   0  0  0  0  0  0  0  0  0  0  0  0
    5.8013    1.8059    0.0000 O   0  0  0  0  0  0  0  0  0  0  0  0
    4.3618   -0.3570    0.0000 C   0  0  0  0  0  0  0  0  0  0  0  0
    5.6106   -1.1881    0.0000 O   0  0  0  0  0  0  0  0  0  0  0  0
    5.5152   -2.6850    0.0000 C   0  0  0  0  0  0  0  0  0  0  0  0
    3.0177   -1.0229    0.0000 C   0  0  0  0  0  0  0  0  0  0  0  0
   -6.0094    0.3038    0.0000 C   0  0  0  0  0  0  0  0  0  0  0  0
   -5.9141    1.8007    0.0000 O   0  0  0  0  0  0  0  0  0  0  0  0
   -7.3535   -0.3621    0.0000 O   0  0  0  0  0  0  0  0  0  0  0  0
  2  1  1  1
  2  3  1  0
  3  4  1  0
  4  5  1  0
  5  6  2  0
  5  7  1  0
  7  8  1  0
  8  9  1  0
  9 10  2  0
 10 11  1  0
 11 12  1  0
 11 13  2  0
 13 14  1  0
 14 15  1  0
 13 16  1  0
  2 17  1  0
 17 18  2  0
 17 19  1  0
 16  8  2  0
M  END
>  <rName>  (235) 
D-Dap_homovanilloyl

>  <PQ_SYMBOL>  (235) 
D-Dap_homovanilloyl

>  <FULL_NAME>  (235) 
3-{[(4-hydroxy-3-methoxyphenyl)acetyl]amino}-D-alanine

>  <IUPAC_CONDENSED>  (235) 
D-Dap(homovanilloyl)

>  <IUPAC>  (235) 
(2R)-2-amino-3-((4-hydroxy-3-methoxyphenyl)methylcarbonylamino)propanoic acid

>  <TYPE>  (235) 
N-term cap

>  <CLASS>  (235) 
n_cap

>  <ANALOG>  (235) 
X

>  <MOL_WT>  (235) 
268.26899999999995

>  <LOGP>  (235) 
-0.5286

>  <TPSA>  (235) 
121.88000000000001

>  <POPULARITY>  (235) 
0.7

>  <PROTECTED>  (235) 
FALSE

>  <SMILES>  (235) 
N[C@H](CNC(=O)Cc1(ccc(O)c(OC)c1))C(=O)O

>  <INCHIKEY>  (235) 
MDFLYKRAUFGSSB-MRVPVSSYSA-N

$$$$
PrSO2-D-Thr
     RDKit          2D

 14 13  0  0  0  0  0  0  0  0999 V2000
   -4.5827    0.8542    0.0000 C   0  0  0  0  0  0  0  0  0  0  0  0
   -3.1029    0.6087    0.0000 C   0  0  0  0  0  0  0  0  0  0  0  0
   -2.5756   -0.7955    0.0000 C   0  0  0  0  0  0  0  0  0  0  0  0
   -1.0958   -1.0410    0.0000 S   0  0  0  0  0  0  0  0  0  0  0  0
   -1.3413   -2.5208    0.0000 O   0  0  0  0  0  0  0  0  0  0  0  0
   -0.8504    0.4388    0.0000 O   0  0  0  0  0  0  0  0  0  0  0  0
    0.3840   -1.2864    0.0000 N   0  0  0  0  0  0  0  0  0  0  0  0
    1.3364   -0.1276    0.0000 C   0  0  0  0  0  0  0  0  0  0  0  0
    2.8162   -0.3731    0.0000 C   0  0  0  0  0  0  0  0  0  0  0  0
    3.3435   -1.7773    0.0000 O   0  0  0  0  0  0  0  0  0  0  0  0
    3.7687    0.7857    0.0000 C   0  0  0  0  0  0  0  0  0  0  0  0
    0.8091    1.2766    0.0000 C   0  0  0  0  0  0  0  0  0  0  0  0
   -0.6707    1.5221    0.0000 O   0  0  0  0  0  0  0  0  0  0  0  0
    1.7615    2.4354    0.0000 O   0  0  0  0  0  0  0  0  0  0  0  0
  1  2  1  0
  2  3  1  0
  3  4  1  0
  4  5  2  0
  4  6  2  0
  4  7  1  0
  8  7  1  1
  8  9  1  0
  9 10  1  0
  9 11  1  6
  8 12  1  0
 12 13  2  0
 12 14  1  0
M  END
>  <rName>  (236) 
PrSO2-D-Thr

>  <PQ_SYMBOL>  (236) 
PrSO2-D-Thr

>  <FULL_NAME>  (236) 
N-(propylsulfonyl)-D-threonine

>  <IUPAC_CONDENSED>  (236) 
PrSO2-D-Thr

>  <IUPAC>  (236) 
(2R,3S)-3-hydroxy-2-propylsulfonylaminobutanoic acid

>  <TYPE>  (236) 
N-term cap

>  <CLASS>  (236) 
n_cap

>  <ANALOG>  (236) 
X

>  <MOL_WT>  (236) 
225.266

>  <LOGP>  (236) 
-0.8501999999999996

>  <TPSA>  (236) 
103.7

>  <POPULARITY>  (236) 
1.6

>  <PROTECTED>  (236) 
FALSE

>  <SMILES>  (236) 
CCCS(=O)(=O)N[C@H]([C@@H](O)C)C(=O)O

>  <INCHIKEY>  (236) 
ZTJRRQPXOMIKLP-NTSWFWBYSA-N

$$$$
cHexCH2-Pro
     RDKit          2D

 15 16  0  0  0  0  0  0  0  0999 V2000
   -4.5467   -0.1364    0.0000 C   0  0  0  0  0  0  0  0  0  0  0  0
   -4.0779    1.2885    0.0000 C   0  0  0  0  0  0  0  0  0  0  0  0
   -2.6095    1.5949    0.0000 C   0  0  0  0  0  0  0  0  0  0  0  0
   -1.6099    0.4764    0.0000 C   0  0  0  0  0  0  0  0  0  0  0  0
   -2.0788   -0.9484    0.0000 C   0  0  0  0  0  0  0  0  0  0  0  0
   -3.5471   -1.2548    0.0000 C   0  0  0  0  0  0  0  0  0  0  0  0
   -0.1416    0.7829    0.0000 C   0  0  0  0  0  0  0  0  0  0  0  0
    0.8580   -0.3356    0.0000 N   0  0  0  0  0  0  0  0  0  0  0  0
    2.3503   -0.1843    0.0000 C   0  0  0  0  0  0  0  0  0  0  0  0
    2.9553   -1.5569    0.0000 C   0  0  0  0  0  0  0  0  0  0  0  0
    1.8369   -2.5565    0.0000 C   0  0  0  0  0  0  0  0  0  0  0  0
    0.5407   -1.8016    0.0000 C   0  0  0  0  0  0  0  0  0  0  0  0
    3.1052    1.1119    0.0000 C   0  0  0  0  0  0  0  0  0  0  0  0
    2.3600    2.4137    0.0000 O   0  0  0  0  0  0  0  0  0  0  0  0
    4.6051    1.1063    0.0000 O   0  0  0  0  0  0  0  0  0  0  0  0
  1  2  1  0
  2  3  1  0
  3  4  1  0
  4  5  1  0
  5  6  1  0
  4  7  1  0
  7  8  1  0
  8  9  1  0
  9 10  1  0
 10 11  1  0
 11 12  1  0
  9 13  1  6
 13 14  2  0
 13 15  1  0
 12  8  1  0
  6  1  1  0
M  END
>  <rName>  (237) 
cHexCH2-Pro

>  <PQ_SYMBOL>  (237) 
cHexCH2-Pro

>  <FULL_NAME>  (237) 
1-(cyclohexylmethyl)-L-proline

>  <IUPAC_CONDENSED>  (237) 
cHexCH2-Pro

>  <IUPAC>  (237) 
(2S)-1-(cyclohexylmethyl)pyrrolidine-2-carboxylic acid

>  <TYPE>  (237) 
N-term cap

>  <CLASS>  (237) 
n_cap

>  <ANALOG>  (237) 
X

>  <MOL_WT>  (237) 
211.30499999999998

>  <LOGP>  (237) 
2.1157

>  <TPSA>  (237) 
40.540000000000006

>  <POPULARITY>  (237) 
7.7

>  <PROTECTED>  (237) 
FALSE

>  <SMILES>  (237) 
C2CCC(CC2)CN1[C@@H](CCC1)C(=O)O

>  <INCHIKEY>  (237) 
XRYRJXQJSTWFDB-NSHDSACASA-N

$$$$
Pip_g_gdiMe
     RDKit          2D

 11 12  0  0  0  0  0  0  0  0999 V2000
    0.8700   -1.8014    0.0000 N   0  0  0  0  0  0  0  0  0  0  0  0
    0.9507   -0.3035    0.0000 C   0  0  0  0  0  0  0  0  0  0  0  0
   -0.4488    0.2361    0.0000 C   0  0  0  0  0  0  0  0  0  0  0  0
   -1.3946   -0.9282    0.0000 C   0  0  0  0  0  0  0  0  0  0  0  0
   -0.5795   -2.1874    0.0000 C   0  0  0  0  0  0  0  0  0  0  0  0
   -1.9300    0.4730    0.0000 C   0  0  0  0  0  0  0  0  0  0  0  0
   -3.4029    0.1890    0.0000 C   0  0  0  0  0  0  0  0  0  0  0  0
   -1.9539    1.9728    0.0000 C   0  0  0  0  0  0  0  0  0  0  0  0
    2.2100    0.5115    0.0000 C   0  0  0  0  0  0  0  0  0  0  0  0
    2.1337    2.0096    0.0000 O   0  0  0  0  0  0  0  0  0  0  0  0
    3.5454   -0.1715    0.0000 O   0  0  0  0  0  0  0  0  0  0  0  0
  1  2  1  0
  2  3  1  0
  3  4  1  0
  4  5  1  6
  4  6  1  0
  6  7  1  0
  6  8  1  0
  2  9  1  1
  9 10  2  0
  9 11  1  0
  5  1  1  0
  3  6  1  6
M  END
>  <rName>  (238) 
Pip_g_gdiMe

>  <PQ_SYMBOL>  (238) 
Pip_g_gdiMe

>  <FULL_NAME>  (238) 
(1R,2S,5S)-6,6-dimethyl-3-azabicyclo[3.1.0]hexane-2-carboxylic acid

>  <IUPAC_CONDENSED>  (238) 
Pip(g,g-diMe)

>  <IUPAC>  (238) 
(1R,2S,5S)-6,6-dimethyl-3-azabicyclo[3.1.0]hexane-2-carboxylic acid

>  <TYPE>  (238) 
N-term cap

>  <CLASS>  (238) 
n_cap

>  <ANALOG>  (238) 
X

>  <MOL_WT>  (238) 
155.197

>  <LOGP>  (238) 
0.31499999999999967

>  <TPSA>  (238) 
49.33

>  <POPULARITY>  (238) 
6.9

>  <PROTECTED>  (238) 
FALSE

>  <SMILES>  (238) 
N1[C@@H]([C@@H]2([C@H](C1)C2(C)C))C(=O)O

>  <INCHIKEY>  (238) 
SSKYNJZREFFALT-ZLUOBGJFSA-N

$$$$
Hyp_quinolin4yl_2thiazol4yl_7OMe_8Br
     RDKit          2D

 33 36  0  0  0  0  0  0  0  0999 V2000
    1.7280   -4.8245    0.0000 N   0  0  0  0  0  0  0  0  0  0  0  0
    2.2367   -3.4134    0.0000 C   0  0  0  0  0  0  0  0  0  0  0  0
    1.0519   -2.4935    0.0000 C   0  0  0  0  0  0  0  0  0  0  0  0
   -0.1891   -3.3361    0.0000 C   0  0  0  0  0  0  0  0  0  0  0  0
   -1.6002   -2.8274    0.0000 O   0  0  0  0  0  0  0  0  0  0  0  0
   -1.8652   -1.3510    0.0000 C   0  0  0  0  0  0  0  0  0  0  0  0
   -0.7191   -0.3833    0.0000 C   0  0  0  0  0  0  0  0  0  0  0  0
   -0.9841    1.0931    0.0000 C   0  0  0  0  0  0  0  0  0  0  0  0
   -2.3952    1.6018    0.0000 N   0  0  0  0  0  0  0  0  0  0  0  0
   -3.5413    0.6341    0.0000 C   0  0  0  0  0  0  0  0  0  0  0  0
   -4.9524    1.1428    0.0000 C   0  0  0  0  0  0  0  0  0  0  0  0
   -5.2175    2.6192    0.0000 Br  0  0  0  0  0  0  0  0  0  0  0  0
   -6.0985    0.1751    0.0000 C   0  0  0  0  0  0  0  0  0  0  0  0
   -7.5096    0.6838    0.0000 O   0  0  0  0  0  0  0  0  0  0  0  0
   -7.7747    2.1602    0.0000 C   0  0  0  0  0  0  0  0  0  0  0  0
   -5.8335   -1.3013    0.0000 C   0  0  0  0  0  0  0  0  0  0  0  0
   -4.4224   -1.8100    0.0000 C   0  0  0  0  0  0  0  0  0  0  0  0
   -3.2763   -0.8423    0.0000 C   0  0  0  0  0  0  0  0  0  0  0  0
    0.1620    2.0608    0.0000 C   0  0  0  0  0  0  0  0  0  0  0  0
    0.0527    3.5568    0.0000 C   0  0  0  0  0  0  0  0  0  0  0  0
    1.4418    4.1230    0.0000 S   0  0  0  0  0  0  0  0  0  0  0  0
    2.4095    2.9769    0.0000 C   0  0  0  0  0  0  0  0  0  0  0  0
    1.6185    1.7024    0.0000 N   0  0  0  0  0  0  0  0  0  0  0  0
    3.9055    3.0861    0.0000 N   0  0  0  0  0  0  0  0  0  0  0  0
    4.7481    1.8452    0.0000 C   0  0  0  0  0  0  0  0  0  0  0  0
    4.0947    0.4949    0.0000 O   0  0  0  0  0  0  0  0  0  0  0  0
    6.2441    1.9544    0.0000 C   0  0  0  0  0  0  0  0  0  0  0  0
    7.0867    0.7134    0.0000 C   0  0  0  0  0  0  0  0  0  0  0  0
    6.8975    3.3046    0.0000 C   0  0  0  0  0  0  0  0  0  0  0  0
    0.2288   -4.7767    0.0000 C   0  0  0  0  0  0  0  0  0  0  0  0
    3.6773   -2.9955    0.0000 C   0  0  0  0  0  0  0  0  0  0  0  0
    4.0358   -1.5389    0.0000 O   0  0  0  0  0  0  0  0  0  0  0  0
    4.7595   -4.0342    0.0000 O   0  0  0  0  0  0  0  0  0  0  0  0
  1  2  1  0
  2  3  1  0
  3  4  1  0
  4  5  1  6
  5  6  1  0
  6  7  1  0
  7  8  2  0
  8  9  1  0
  9 10  2  0
 10 11  1  0
 11 12  1  0
 11 13  2  0
 13 14  1  0
 14 15  1  0
 13 16  1  0
 16 17  2  0
 17 18  1  0
  8 19  1  0
 19 20  2  0
 20 21  1  0
 21 22  1  0
 22 23  2  0
 22 24  1  0
 24 25  1  0
 25 26  2  0
 25 27  1  0
 27 28  1  0
 27 29  1  0
  4 30  1  0
  2 31  1  1
 31 32  2  0
 31 33  1  0
 18  6  2  0
 18 10  1  0
 23 19  1  0
 30  1  1  0
M  END
>  <rName>  (239) 
Hyp_quinolin4yl_2thiazol4yl_7OMe_8Br

>  <PQ_SYMBOL>  (239) 
Hyp_quinolin4yl_2thiazol4yl_7OMe_8Br

>  <FULL_NAME>  (239) 
(4R)-4-[(8-bromo-7-methoxy-2-{2-[(2-methylpropanoyl)amino]-1,3-thiazol-4-yl}quinolin-4-yl)oxy]-L-proline

>  <IUPAC_CONDENSED>  (239) 
Hyp(quinolin-4-yl(2-thiazol-4-yl,7-OMe,8-Br))

>  <IUPAC>  (239) 
(2S,4R)-4-((8-bromo-7-methoxy-2-(2-(propan-2-ylcarbonylamino)thiazol-4-yl)quinolin-4-yl)oxy)pyrrolidine-2-carboxylic acid

>  <TYPE>  (239) 
N-term cap

>  <CLASS>  (239) 
n_cap

>  <ANALOG>  (239) 
X

>  <MOL_WT>  (239) 
535.4200000000003

>  <LOGP>  (239) 
3.9178000000000024

>  <TPSA>  (239) 
122.67

>  <POPULARITY>  (239) 
2.3

>  <PROTECTED>  (239) 
FALSE

>  <SMILES>  (239) 
N4[C@@H](C[C@@H](Oc1(cc(nc2(c(Br)c(OC)ccc12))c3(csc(n3)NC(=O)C(C)C)))C4)C(=O)O

>  <INCHIKEY>  (239) 
QSUXZKXMOTVMGR-RISCZKNCSA-N

$$$$
Hyp_quinolin4yl_2thiazol4yl_7OMe
     RDKit          2D

 32 35  0  0  0  0  0  0  0  0999 V2000
   -1.3607    4.8052    0.0000 N   0  0  0  0  0  0  0  0  0  0  0  0
   -1.9293    3.4172    0.0000 C   0  0  0  0  0  0  0  0  0  0  0  0
   -0.7848    2.4475    0.0000 C   0  0  0  0  0  0  0  0  0  0  0  0
    0.4910    3.2362    0.0000 C   0  0  0  0  0  0  0  0  0  0  0  0
    1.8791    2.6676    0.0000 O   0  0  0  0  0  0  0  0  0  0  0  0
    2.0807    1.1812    0.0000 C   0  0  0  0  0  0  0  0  0  0  0  0
    0.8942    0.2635    0.0000 C   0  0  0  0  0  0  0  0  0  0  0  0
    1.0959   -1.2229    0.0000 C   0  0  0  0  0  0  0  0  0  0  0  0
    2.4839   -1.7915    0.0000 N   0  0  0  0  0  0  0  0  0  0  0  0
    3.6704   -0.8737    0.0000 C   0  0  0  0  0  0  0  0  0  0  0  0
    5.0584   -1.4423    0.0000 C   0  0  0  0  0  0  0  0  0  0  0  0
    6.2449   -0.5245    0.0000 C   0  0  0  0  0  0  0  0  0  0  0  0
    7.6329   -1.0931    0.0000 O   0  0  0  0  0  0  0  0  0  0  0  0
    7.8345   -2.5795    0.0000 C   0  0  0  0  0  0  0  0  0  0  0  0
    6.0433    0.9618    0.0000 C   0  0  0  0  0  0  0  0  0  0  0  0
    4.6552    1.5304    0.0000 C   0  0  0  0  0  0  0  0  0  0  0  0
    3.4688    0.6127    0.0000 C   0  0  0  0  0  0  0  0  0  0  0  0
   -0.0906   -2.1407    0.0000 C   0  0  0  0  0  0  0  0  0  0  0  0
   -0.0455   -3.6400    0.0000 C   0  0  0  0  0  0  0  0  0  0  0  0
   -1.4574   -4.1463    0.0000 S   0  0  0  0  0  0  0  0  0  0  0  0
   -2.3752   -2.9598    0.0000 C   0  0  0  0  0  0  0  0  0  0  0  0
   -1.5305   -1.7203    0.0000 N   0  0  0  0  0  0  0  0  0  0  0  0
   -3.8746   -3.0050    0.0000 N   0  0  0  0  0  0  0  0  0  0  0  0
   -4.6633   -1.7291    0.0000 C   0  0  0  0  0  0  0  0  0  0  0  0
   -3.9527   -0.4081    0.0000 O   0  0  0  0  0  0  0  0  0  0  0  0
   -6.1626   -1.7742    0.0000 C   0  0  0  0  0  0  0  0  0  0  0  0
   -6.9514   -0.4983    0.0000 C   0  0  0  0  0  0  0  0  0  0  0  0
   -6.8732   -3.0952    0.0000 C   0  0  0  0  0  0  0  0  0  0  0  0
    0.1352    4.6934    0.0000 C   0  0  0  0  0  0  0  0  0  0  0  0
   -3.3864    3.0613    0.0000 C   0  0  0  0  0  0  0  0  0  0  0  0
   -3.8068    1.6214    0.0000 O   0  0  0  0  0  0  0  0  0  0  0  0
   -4.4232    4.1453    0.0000 O   0  0  0  0  0  0  0  0  0  0  0  0
  1  2  1  0
  2  3  1  0
  3  4  1  0
  4  5  1  6
  5  6  1  0
  6  7  1  0
  7  8  2  0
  8  9  1  0
  9 10  2  0
 10 11  1  0
 11 12  2  0
 12 13  1  0
 13 14  1  0
 12 15  1  0
 15 16  2  0
 16 17  1  0
  8 18  1  0
 18 19  2  0
 19 20  1  0
 20 21  1  0
 21 22  2  0
 21 23  1  0
 23 24  1  0
 24 25  2  0
 24 26  1  0
 26 27  1  0
 26 28  1  0
  4 29  1  0
  2 30  1  1
 30 31  2  0
 30 32  1  0
 17  6  2  0
 17 10  1  0
 22 18  1  0
 29  1  1  0
M  END
>  <rName>  (240) 
Hyp_quinolin4yl_2thiazol4yl_7OMe

>  <PQ_SYMBOL>  (240) 
Hyp_quinolin4yl_2thiazol4yl_7OMe

>  <FULL_NAME>  (240) 
(4R)-4-[(7-methoxy-2-{2-[(2-methylpropanoyl)amino]-1,3-thiazol-4-yl}quinolin-4-yl)oxy]-L-proline

>  <IUPAC_CONDENSED>  (240) 
Hyp(quinolin-4-yl(2-thiazol-4-yl,7-OMe))

>  <IUPAC>  (240) 
(2S,4R)-4-((7-methoxy-2-(2-(propan-2-ylcarbonylamino)thiazol-4-yl)quinolin-4-yl)oxy)pyrrolidine-2-carboxylic acid

>  <TYPE>  (240) 
N-term cap

>  <CLASS>  (240) 
n_cap

>  <ANALOG>  (240) 
X

>  <MOL_WT>  (240) 
456.5240000000002

>  <LOGP>  (240) 
3.1553000000000013

>  <TPSA>  (240) 
122.67

>  <POPULARITY>  (240) 
2.5

>  <PROTECTED>  (240) 
FALSE

>  <SMILES>  (240) 
N4[C@@H](C[C@@H](Oc1(cc(nc2(cc(OC)ccc12))c3(csc(n3)NC(=O)C(C)C)))C4)C(=O)O

>  <INCHIKEY>  (240) 
IKWNXRAYNMPEFW-DYVFJYSZSA-N

$$$$
Bn3-OMe3-OMe4-OMe-Pro
     RDKit          2D

 21 22  0  0  0  0  0  0  0  0999 V2000
   -5.4920    0.5297    0.0000 C   0  0  0  0  0  0  0  0  0  0  0  0
   -4.4707   -0.5689    0.0000 O   0  0  0  0  0  0  0  0  0  0  0  0
   -3.0086   -0.2338    0.0000 C   0  0  0  0  0  0  0  0  0  0  0  0
   -2.5678    1.2000    0.0000 C   0  0  0  0  0  0  0  0  0  0  0  0
   -3.5891    2.2986    0.0000 O   0  0  0  0  0  0  0  0  0  0  0  0
   -3.1483    3.7324    0.0000 C   0  0  0  0  0  0  0  0  0  0  0  0
   -1.1057    1.5351    0.0000 C   0  0  0  0  0  0  0  0  0  0  0  0
   -0.0844    0.4365    0.0000 C   0  0  0  0  0  0  0  0  0  0  0  0
   -0.5252   -0.9973    0.0000 C   0  0  0  0  0  0  0  0  0  0  0  0
   -1.9873   -1.3324    0.0000 C   0  0  0  0  0  0  0  0  0  0  0  0
   -2.4281   -2.7662    0.0000 O   0  0  0  0  0  0  0  0  0  0  0  0
   -3.8902   -3.1013    0.0000 C   0  0  0  0  0  0  0  0  0  0  0  0
    1.3777    0.7716    0.0000 C   0  0  0  0  0  0  0  0  0  0  0  0
    2.3989   -0.3270    0.0000 N   0  0  0  0  0  0  0  0  0  0  0  0
    3.8880   -0.1465    0.0000 C   0  0  0  0  0  0  0  0  0  0  0  0
    4.5198   -1.5069    0.0000 C   0  0  0  0  0  0  0  0  0  0  0  0
    3.4212   -2.5282    0.0000 C   0  0  0  0  0  0  0  0  0  0  0  0
    2.1104   -1.7990    0.0000 C   0  0  0  0  0  0  0  0  0  0  0  0
    4.6173    1.1643    0.0000 C   0  0  0  0  0  0  0  0  0  0  0  0
    3.8467    2.4513    0.0000 O   0  0  0  0  0  0  0  0  0  0  0  0
    6.1171    1.1881    0.0000 O   0  0  0  0  0  0  0  0  0  0  0  0
  1  2  1  0
  2  3  1  0
  3  4  2  0
  4  5  1  0
  5  6  1  0
  4  7  1  0
  7  8  2  0
  8  9  1  0
  9 10  2  0
 10 11  1  0
 11 12  1  0
  8 13  1  0
 13 14  1  0
 14 15  1  0
 15 16  1  0
 16 17  1  0
 17 18  1  0
 15 19  1  6
 19 20  2  0
 19 21  1  0
 18 14  1  0
 10  3  1  0
M  END
>  <rName>  (241) 
Bn3-OMe3-OMe4-OMe-Pro

>  <PQ_SYMBOL>  (241) 
Bn3-OMe3-OMe4-OMe-Pro

>  <FULL_NAME>  (241) 
1-(3,4,5-trimethoxybenzyl)-L-proline

>  <IUPAC_CONDENSED>  (241) 
Bn(3-OMe,3-OMe,4-OMe)-Pro

>  <IUPAC>  (241) 
(2S)-1-((3,4,5-trimethoxyphenyl)methyl)pyrrolidine-2-carboxylic acid

>  <TYPE>  (241) 
N-term cap

>  <CLASS>  (241) 
n_cap

>  <ANALOG>  (241) 
X

>  <MOL_WT>  (241) 
295.335

>  <LOGP>  (241) 
1.7613999999999999

>  <TPSA>  (241) 
68.23

>  <POPULARITY>  (241) 
5.6

>  <PROTECTED>  (241) 
FALSE

>  <SMILES>  (241) 
COc2c(OC)cc(cc2OC)CN1[C@@H](CCC1)C(=O)O

>  <INCHIKEY>  (241) 
LVFDRCYXLYHJCR-NSHDSACASA-N

$$$$
D-Cha_Nsulfamoyl
     RDKit          2D

 16 16  0  0  0  0  0  0  0  0999 V2000
   -4.3395   -0.9760    0.0000 C   0  0  0  0  0  0  0  0  0  0  0  0
   -4.4172    0.5220    0.0000 C   0  0  0  0  0  0  0  0  0  0  0  0
   -3.1588    1.3382    0.0000 C   0  0  0  0  0  0  0  0  0  0  0  0
   -1.8226    0.6565    0.0000 C   0  0  0  0  0  0  0  0  0  0  0  0
   -1.7449   -0.8415    0.0000 C   0  0  0  0  0  0  0  0  0  0  0  0
   -3.0034   -1.6578    0.0000 C   0  0  0  0  0  0  0  0  0  0  0  0
   -0.5642    1.4728    0.0000 C   0  0  0  0  0  0  0  0  0  0  0  0
    0.7720    0.7910    0.0000 C   0  0  0  0  0  0  0  0  0  0  0  0
    0.8496   -0.7069    0.0000 N   0  0  0  0  0  0  0  0  0  0  0  0
    2.1858   -1.3887    0.0000 S   0  0  0  0  0  0  0  0  0  0  0  0
    2.8675   -0.0525    0.0000 O   0  0  0  0  0  0  0  0  0  0  0  0
    1.5041   -2.7248    0.0000 O   0  0  0  0  0  0  0  0  0  0  0  0
    3.5219   -2.0704    0.0000 N   0  0  0  0  0  0  0  0  0  0  0  0
    2.0304    1.6073    0.0000 C   0  0  0  0  0  0  0  0  0  0  0  0
    1.9528    3.1053    0.0000 O   0  0  0  0  0  0  0  0  0  0  0  0
    3.3666    0.9256    0.0000 O   0  0  0  0  0  0  0  0  0  0  0  0
  1  2  1  0
  2  3  1  0
  3  4  1  0
  4  5  1  0
  5  6  1  0
  4  7  1  0
  8  7  1  6
  8  9  1  0
  9 10  1  0
 10 11  2  0
 10 12  2  0
 10 13  1  0
  8 14  1  0
 14 15  2  0
 14 16  1  0
  6  1  1  0
M  END
>  <rName>  (242) 
D-Cha_Nsulfamoyl

>  <PQ_SYMBOL>  (242) 
D-Cha_Nsulfamoyl

>  <FULL_NAME>  (242) 
3-cyclohexyl-N-sulfamoyl-D-alanine

>  <IUPAC_CONDENSED>  (242) 
D-Cha(N-sulfamoyl)

>  <IUPAC>  (242) 
(2R)-2-sulfamoylamino-3-cyclohexylpropanoic acid

>  <TYPE>  (242) 
N-term cap

>  <CLASS>  (242) 
n_cap

>  <ANALOG>  (242) 
X

>  <MOL_WT>  (242) 
250.32

>  <LOGP>  (242) 
0.20310000000000034

>  <TPSA>  (242) 
109.49

>  <POPULARITY>  (242) 
1.5

>  <PROTECTED>  (242) 
FALSE

>  <SMILES>  (242) 
C1CCC(CC1)C[C@@H](NS(=O)(=O)N)C(=O)O

>  <INCHIKEY>  (242) 
LHUDYJGZVNZVTM-MRVPVSSYSA-N

$$$$
Abu_MeSH
     RDKit          2D

  9  8  0  0  0  0  0  0  0  0999 V2000
    0.0000   -2.3333    0.0000 N   0  0  0  0  0  0  0  0  0  0  0  0
    0.0000   -0.8333    0.0000 C   0  0  0  0  0  0  0  0  0  0  0  0
   -1.2990   -0.0833    0.0000 C   0  0  0  0  0  0  0  0  0  0  0  0
   -2.5981   -0.8333    0.0000 C   0  0  0  0  0  0  0  0  0  0  0  0
   -1.2990    1.4167    0.0000 S   0  0  0  0  0  0  0  0  0  0  0  0
    0.0000    2.1667    0.0000 C   0  0  0  0  0  0  0  0  0  0  0  0
    1.2990   -0.0833    0.0000 C   0  0  0  0  0  0  0  0  0  0  0  0
    1.2990    1.4167    0.0000 O   0  0  0  0  0  0  0  0  0  0  0  0
    2.5981   -0.8333    0.0000 O   0  0  0  0  0  0  0  0  0  0  0  0
  2  1  1  6
  2  3  1  0
  3  4  1  0
  3  5  1  0
  5  6  1  0
  2  7  1  0
  7  8  2  0
  7  9  1  0
M  END
>  <rName>  (243) 
Abu_MeSH

>  <PQ_SYMBOL>  (243) 
Abu_MeSH

>  <FULL_NAME>  (243) 
(2S)-2-AMINO-3-METHYLSULFANYL-BUTANOIC ACID

>  <IUPAC_CONDENSED>  (243) 
Abu(MeSH)

>  <IUPAC>  (243) 
(2S)-2-amino-3-(methylsulfanyl)butanoic acid

>  <TYPE>  (243) 
N-term cap

>  <CLASS>  (243) 
n_cap

>  <ANALOG>  (243) 
X

>  <MOL_WT>  (243) 
149.215

>  <LOGP>  (243) 
0.14979999999999988

>  <TPSA>  (243) 
63.32000000000001

>  <POPULARITY>  (243) 
11.4

>  <PROTECTED>  (243) 
FALSE

>  <SMILES>  (243) 
N[C@H](C(C)SC)C(=O)O

>  <INCHIKEY>  (243) 
PWDYHRMBGRYCAP-SRBOSORUSA-N

$$$$
Abu4R-1-guanidinopiperidin-3-yl-al
     RDKit          2D

 15 15  0  0  0  0  0  0  0  0999 V2000
   -2.2164    1.3592    0.0000 N   0  0  0  0  0  0  0  0  0  0  0  0
   -2.9508    0.0512    0.0000 C   0  0  0  0  0  0  0  0  0  0  0  0
   -4.4507    0.0333    0.0000 C   0  0  0  0  0  0  0  0  0  0  0  0
   -5.2162    1.3232    0.0000 O   0  0  0  0  0  0  0  0  0  0  0  0
   -2.1853   -1.2387    0.0000 C   0  0  0  0  0  0  0  0  0  0  0  0
   -0.6854   -1.2207    0.0000 C   0  0  0  0  0  0  0  0  0  0  0  0
    0.0490    0.0872    0.0000 C   0  0  0  0  0  0  0  0  0  0  0  0
    1.5489    0.1052    0.0000 N   0  0  0  0  0  0  0  0  0  0  0  0
    2.3144   -1.1848    0.0000 C   0  0  0  0  0  0  0  0  0  0  0  0
    1.5800   -2.4927    0.0000 C   0  0  0  0  0  0  0  0  0  0  0  0
    0.0801   -2.5107    0.0000 C   0  0  0  0  0  0  0  0  0  0  0  0
    2.2832    1.4131    0.0000 C   0  0  0  0  0  0  0  0  0  0  0  0
    1.5177    2.7031    0.0000 N   0  0  0  0  0  0  0  0  0  0  0  0
    3.7831    1.4311    0.0000 N   0  0  0  0  0  0  0  0  0  0  0  0
    4.5486    0.1411    0.0000 H   0  0  0  0  0  0  0  0  0  0  0  0
  2  1  1  1
  2  3  1  0
  3  4  2  0
  2  5  1  0
  6  5  1  6
  6  7  1  0
  7  8  1  0
  8  9  1  0
  9 10  1  0
 10 11  1  0
  8 12  1  0
 12 13  1  0
 12 14  2  0
 14 15  1  0
 11  6  1  0
M  END
>  <rName>  (244) 
Abu4R-1-guanidinopiperidin-3-yl-al

>  <PQ_SYMBOL>  (244) 
Abu4R-1-guanidinopiperidin-3-yl-al

>  <FULL_NAME>  (244) 
(3R)-3-[(2S)-2-amino-3-oxopropyl]piperidine-1-carboximidamide

>  <IUPAC_CONDENSED>  (244) 
Abu(4R-1-guanidinopiperidin-3-yl)-al

>  <IUPAC>  (244) 
(2S)-2-amino-3-((3R)-1-((1Z)-(amino)(imino)methyl)piperidin-3-yl)propanal

>  <TYPE>  (244) 
C-term cap

>  <CLASS>  (244) 
c_cap

>  <ANALOG>  (244) 
X

>  <MOL_WT>  (244) 
198.26999999999998

>  <LOGP>  (244) 
-0.4918299999999995

>  <TPSA>  (244) 
96.20000000000002

>  <POPULARITY>  (244) 
0.8

>  <PROTECTED>  (244) 
FALSE

>  <SMILES>  (244) 
N[C@H](C=O)C[C@@H]1CN(CCC1)/C(/N)=N\[H]

>  <INCHIKEY>  (244) 
IRUHYIZUOLOUAT-SFYZADRCSA-N

$$$$
octahydrocyclopropa34pyrrolo35-bpyrazine1aS4S6aR7aS-4-CO2H
     RDKit          2D

 13 15  0  0  0  0  0  0  0  0999 V2000
   -1.3754    1.5235    0.0000 N   0  0  0  0  0  0  0  0  0  0  0  0
   -1.6379    0.0466    0.0000 C   0  0  0  0  0  0  0  0  0  0  0  0
   -0.4902   -0.9191    0.0000 C   0  0  0  0  0  0  0  0  0  0  0  0
    0.9201   -0.4081    0.0000 N   0  0  0  0  0  0  0  0  0  0  0  0
    1.1826    1.0688    0.0000 C   0  0  0  0  0  0  0  0  0  0  0  0
    0.0349    2.0346    0.0000 C   0  0  0  0  0  0  0  0  0  0  0  0
    2.6683    1.2755    0.0000 C   0  0  0  0  0  0  0  0  0  0  0  0
    3.3240   -0.0736    0.0000 C   0  0  0  0  0  0  0  0  0  0  0  0
    3.6848   -1.5296    0.0000 C   0  0  0  0  0  0  0  0  0  0  0  0
    2.2435   -1.1141    0.0000 C   0  0  0  0  0  0  0  0  0  0  0  0
   -3.0482   -0.4644    0.0000 C   0  0  0  0  0  0  0  0  0  0  0  0
   -3.3107   -1.9413    0.0000 O   0  0  0  0  0  0  0  0  0  0  0  0
   -4.1959    0.5013    0.0000 O   0  0  0  0  0  0  0  0  0  0  0  0
  1  2  1  0
  2  3  1  0
  3  4  1  0
  4  5  1  0
  5  6  1  1
  5  7  1  0
  8  7  1  6
  8  9  1  0
 10  9  1  6
  2 11  1  1
 11 12  2  0
 11 13  1  0
  6  1  1  0
 10  8  1  0
 10  4  1  0
M  END
>  <rName>  (245) 
octahydrocyclopropa34pyrrolo35-bpyrazine1aS4S6aR7aS-4-CO2H

>  <PQ_SYMBOL>  (245) 
octahydrocyclopropa34pyrrolo35-bpyrazine1aS4S6aR7aS-4-CO2H

>  <FULL_NAME>  (245) 
(1aS,4S,6aR,7aS)-octahydro-1H-cyclopropa[4,5]pyrrolo[1,2-a]pyrazine-4-carboxylic acid

>  <IUPAC_CONDENSED>  (245) 
octahydrocyclopropa[3,4]pyrrolo[3,5-b]pyrazine(1aS,4S,6aR,7aS)-4-CO2H

>  <IUPAC>  (245) 
(2S,4S,6R,9S)-1,8-diazatricyclo[4.4.0.0^{2,4}]decane-9-carboxylic acid

>  <TYPE>  (245) 
N-term cap

>  <CLASS>  (245) 
n_cap

>  <ANALOG>  (245) 
X

>  <MOL_WT>  (245) 
182.22299999999998

>  <LOGP>  (245) 
-0.49440000000000023

>  <TPSA>  (245) 
52.57000000000001

>  <POPULARITY>  (245) 
1.2

>  <PROTECTED>  (245) 
FALSE

>  <SMILES>  (245) 
N1[C@@H](CN3([C@@H](C1)C[C@@H]2(C[C@@H]23)))C(=O)O

>  <INCHIKEY>  (245) 
RLXWDLCPQAWTPR-NGJRWZKOSA-N

$$$$
2-amino-2-deoxyadenosine
     RDKit          2D

 19 21  0  0  0  0  0  0  0  0999 V2000
    5.4486   -0.8786    0.0000 N   0  0  0  0  0  0  0  0  0  0  0  0
    4.1875   -0.0665    0.0000 C   0  0  0  0  0  0  0  0  0  0  0  0
    2.8536   -0.7527    0.0000 C   0  0  0  0  0  0  0  0  0  0  0  0
    1.5924    0.0594    0.0000 C   0  0  0  0  0  0  0  0  0  0  0  0
    1.6651    1.5576    0.0000 N   0  0  0  0  0  0  0  0  0  0  0  0
    2.9990    2.2438    0.0000 C   0  0  0  0  0  0  0  0  0  0  0  0
    4.2602    1.4317    0.0000 N   0  0  0  0  0  0  0  0  0  0  0  0
    0.4304   -0.8891    0.0000 N   0  0  0  0  0  0  0  0  0  0  0  0
    0.9734   -2.2874    0.0000 C   0  0  0  0  0  0  0  0  0  0  0  0
    2.4710   -2.2031    0.0000 N   0  0  0  0  0  0  0  0  0  0  0  0
   -1.0200   -0.5065    0.0000 C   0  0  0  0  0  0  0  0  0  0  0  0
   -2.1820   -1.4550    0.0000 O   0  0  0  0  0  0  0  0  0  0  0  0
   -3.4432   -0.6429    0.0000 C   0  0  0  0  0  0  0  0  0  0  0  0
   -3.0606    0.8075    0.0000 C   0  0  0  0  0  0  0  0  0  0  0  0
   -4.0091    1.9695    0.0000 O   0  0  0  0  0  0  0  0  0  0  0  0
   -1.5630    0.8918    0.0000 C   0  0  0  0  0  0  0  0  0  0  0  0
   -0.7509    2.1529    0.0000 N   0  0  0  0  0  0  0  0  0  0  0  0
   -4.8415   -1.1859    0.0000 C   0  0  0  0  0  0  0  0  0  0  0  0
   -6.0109   -0.2464    0.0000 O   0  0  0  0  0  0  0  0  0  0  0  0
  1  2  1  0
  2  3  2  0
  3  4  1  0
  4  5  2  0
  5  6  1  0
  6  7  2  0
  4  8  1  0
  8  9  1  0
  9 10  2  0
 11  8  1  6
 11 12  1  0
 12 13  1  0
 13 14  1  0
 14 15  1  1
 14 16  1  0
 16 17  1  1
 13 18  1  6
 18 19  1  0
 16 11  1  0
 10  3  1  0
  7  2  1  0
M  END
>  <rName>  (246) 
2-amino-2-deoxyadenosine

>  <PQ_SYMBOL>  (246) 
2-amino-2-deoxyadenosine

>  <FULL_NAME>  (246) 
2'-AMINO-2'-DEOXYADENOSINE

>  <IUPAC_CONDENSED>  (246) 
2-amino-2-deoxyadenosine

>  <IUPAC>  (246) 
(2R,3S,4R,5R)-4-amino-5-(5-amino-2,4,7,9-tetraazabicyclo[4.3.0]nona-1,3,5,7-tetraen-9-yl)-2-(hydroxymethyl)oxolan-3-ol

>  <TYPE>  (246) 
C-term cap

>  <CLASS>  (246) 
c_cap

>  <ANALOG>  (246) 
X

>  <MOL_WT>  (246) 
266.26099999999997

>  <LOGP>  (246) 
-2.0135999999999994

>  <TPSA>  (246) 
145.33

>  <POPULARITY>  (246) 
10.7

>  <PROTECTED>  (246) 
FALSE

>  <SMILES>  (246) 
Nc3c2c(ncn3)n(cn2)[C@@H]1O[C@@H]([C@@H](O)[C@H]1N)CO

>  <INCHIKEY>  (246) 
CQKMBZHLOYVGHW-QYYRPYCUSA-N

$$$$
S-2-aminohexane-11-diol
     RDKit          2D

  9  8  0  0  0  0  0  0  0  0999 V2000
    0.7616   -1.8791    0.0000 N   0  0  0  0  0  0  0  0  0  0  0  0
    0.8459   -0.3815    0.0000 C   0  0  0  0  0  0  0  0  0  0  0  0
    2.1851    0.2943    0.0000 C   0  0  0  0  0  0  0  0  0  0  0  0
    3.4399   -0.5275    0.0000 O   0  0  0  0  0  0  0  0  0  0  0  0
    2.2694    1.7919    0.0000 O   0  0  0  0  0  0  0  0  0  0  0  0
   -0.4089    0.4403    0.0000 C   0  0  0  0  0  0  0  0  0  0  0  0
   -1.7480   -0.2354    0.0000 C   0  0  0  0  0  0  0  0  0  0  0  0
   -3.0029    0.5864    0.0000 C   0  0  0  0  0  0  0  0  0  0  0  0
   -4.3420   -0.0894    0.0000 C   0  0  0  0  0  0  0  0  0  0  0  0
  2  1  1  1
  2  3  1  0
  3  4  1  0
  3  5  1  0
  2  6  1  0
  6  7  1  0
  7  8  1  0
  8  9  1  0
M  END
>  <rName>  (247) 
S-2-aminohexane-11-diol

>  <PQ_SYMBOL>  (247) 
S-2-aminohexane-11-diol

>  <FULL_NAME>  (247) 
(2S)-2-AMINOHEXANE-1,1-DIOL

>  <IUPAC_CONDENSED>  (247) 
S-2-aminohexane-1,1-diol

>  <IUPAC>  (247) 
(2S)-2-aminohexane-1,1-diol

>  <TYPE>  (247) 
C-term cap

>  <CLASS>  (247) 
c_cap

>  <ANALOG>  (247) 
X

>  <MOL_WT>  (247) 
133.191

>  <LOGP>  (247) 
-0.18540000000000068

>  <TPSA>  (247) 
66.48

>  <POPULARITY>  (247) 
12.3

>  <PROTECTED>  (247) 
FALSE

>  <SMILES>  (247) 
N[C@H](C(O)O)CCCC

>  <INCHIKEY>  (247) 
SUCLLBDDWGZXQQ-YFKPBYRVSA-N

$$$$
SerO-Gaba4-NHCO-Leu-al
     RDKit          2D

 20 19  0  0  0  0  0  0  0  0999 V2000
    6.9564    1.6771    0.0000 N   0  0  0  0  0  0  0  0  0  0  0  0
    6.8973    0.1783    0.0000 C   0  0  0  0  0  0  0  0  0  0  0  0
    8.1658   -0.6223    0.0000 C   0  0  0  0  0  0  0  0  0  0  0  0
    9.4933    0.0759    0.0000 O   0  0  0  0  0  0  0  0  0  0  0  0
    5.5697   -0.5199    0.0000 C   0  0  0  0  0  0  0  0  0  0  0  0
    4.3012    0.2807    0.0000 O   0  0  0  0  0  0  0  0  0  0  0  0
    2.9736   -0.4175    0.0000 C   0  0  0  0  0  0  0  0  0  0  0  0
    2.9145   -1.9164    0.0000 O   0  0  0  0  0  0  0  0  0  0  0  0
    1.7052    0.3831    0.0000 C   0  0  0  0  0  0  0  0  0  0  0  0
    0.3776   -0.3151    0.0000 C   0  0  0  0  0  0  0  0  0  0  0  0
   -0.8909    0.4855    0.0000 C   0  0  0  0  0  0  0  0  0  0  0  0
   -2.2185   -0.2127    0.0000 N   0  0  0  0  0  0  0  0  0  0  0  0
   -3.4869    0.5879    0.0000 C   0  0  0  0  0  0  0  0  0  0  0  0
   -3.4278    2.0867    0.0000 O   0  0  0  0  0  0  0  0  0  0  0  0
   -4.8145   -0.1103    0.0000 C   0  0  0  0  0  0  0  0  0  0  0  0
   -4.8736   -1.6092    0.0000 O   0  0  0  0  0  0  0  0  0  0  0  0
   -6.0830    0.6903    0.0000 C   0  0  0  0  0  0  0  0  0  0  0  0
   -7.4106   -0.0079    0.0000 C   0  0  0  0  0  0  0  0  0  0  0  0
   -8.6791    0.7927    0.0000 C   0  0  0  0  0  0  0  0  0  0  0  0
   -7.4697   -1.5068    0.0000 C   0  0  0  0  0  0  0  0  0  0  0  0
  2  1  1  6
  2  3  1  0
  3  4  2  0
  2  5  1  0
  5  6  1  0
  6  7  1  0
  7  8  2  0
  7  9  1  0
  9 10  1  0
 10 11  1  0
 11 12  1  0
 12 13  1  0
 13 14  2  0
 13 15  1  0
 15 16  1  1
 15 17  1  0
 17 18  1  0
 18 19  1  0
 18 20  1  0
M  END
>  <rName>  (248) 
SerO-Gaba4-NHCO-Leu-al

>  <PQ_SYMBOL>  (248) 
SerO-Gaba4-NHCO-Leu-al

>  <FULL_NAME>  (248) 
(2S)-2-amino-3-oxopropyl 4-{[(2S)-2-hydroxy-4-methylpentanoyl]amino}butanoate

>  <IUPAC_CONDENSED>  (248) 
Ser(O-Gaba(4-NHCO-Leu))-al

>  <IUPAC>  (248) 
(2S)-2-amino-3-oxopropyl 4-((1S)-1-hydroxy-3-methylbutylcarbonylamino)butanoate

>  <TYPE>  (248) 
C-term cap

>  <CLASS>  (248) 
c_cap

>  <ANALOG>  (248) 
X

>  <MOL_WT>  (248) 
288.344

>  <LOGP>  (248) 
-0.6407999999999991

>  <TPSA>  (248) 
118.72000000000001

>  <POPULARITY>  (248) 
3.2

>  <PROTECTED>  (248) 
FALSE

>  <SMILES>  (248) 
N[C@H](C=O)COC(=O)CCCNC(=O)[C@@H](O)CC(C)C

>  <INCHIKEY>  (248) 
GRIOOHXHRRRAIS-MNOVXSKESA-N

$$$$
Serhexanoyl-al
     RDKit          2D

 13 12  0  0  0  0  0  0  0  0999 V2000
   -3.6642    1.7097    0.0000 N   0  0  0  0  0  0  0  0  0  0  0  0
   -3.6078    0.2107    0.0000 C   0  0  0  0  0  0  0  0  0  0  0  0
   -4.8777   -0.5875    0.0000 C   0  0  0  0  0  0  0  0  0  0  0  0
   -6.2040    0.1131    0.0000 O   0  0  0  0  0  0  0  0  0  0  0  0
   -2.2815   -0.4899    0.0000 C   0  0  0  0  0  0  0  0  0  0  0  0
   -1.0116    0.3084    0.0000 O   0  0  0  0  0  0  0  0  0  0  0  0
    0.3147   -0.3923    0.0000 C   0  0  0  0  0  0  0  0  0  0  0  0
    0.3711   -1.8912    0.0000 O   0  0  0  0  0  0  0  0  0  0  0  0
    1.5847    0.4060    0.0000 C   0  0  0  0  0  0  0  0  0  0  0  0
    2.9110   -0.2947    0.0000 C   0  0  0  0  0  0  0  0  0  0  0  0
    4.1809    0.5036    0.0000 C   0  0  0  0  0  0  0  0  0  0  0  0
    5.5072   -0.1971    0.0000 C   0  0  0  0  0  0  0  0  0  0  0  0
    6.7772    0.6012    0.0000 C   0  0  0  0  0  0  0  0  0  0  0  0
  2  1  1  1
  2  3  1  0
  3  4  2  0
  2  5  1  0
  5  6  1  0
  6  7  1  0
  7  8  2  0
  7  9  1  0
  9 10  1  0
 10 11  1  0
 11 12  1  0
 12 13  1  0
M  END
>  <rName>  (249) 
Serhexanoyl-al

>  <PQ_SYMBOL>  (249) 
Serhexanoyl-al

>  <FULL_NAME>  (249) 
(2S)-2-amino-3-oxopropyl hexanoate

>  <IUPAC_CONDENSED>  (249) 
Ser(hexanoyl)-al

>  <IUPAC>  (249) 
(2S)-2-amino-3-oxopropyl hexanoate

>  <TYPE>  (249) 
C-term cap

>  <CLASS>  (249) 
c_cap

>  <ANALOG>  (249) 
X

>  <MOL_WT>  (249) 
187.23899999999995

>  <LOGP>  (249) 
0.6360999999999992

>  <TPSA>  (249) 
69.39000000000001

>  <POPULARITY>  (249) 
7

>  <PROTECTED>  (249) 
FALSE

>  <SMILES>  (249) 
N[C@H](C=O)COC(=O)CCCCC

>  <INCHIKEY>  (249) 
TWFYCPDKEVVTJF-MRVPVSSYSA-N

$$$$
Val-2-amino-2-deoxyadenosine
     RDKit          2D

 26 28  0  0  0  0  0  0  0  0999 V2000
    1.0978    3.4072    0.0000 N   0  0  0  0  0  0  0  0  0  0  0  0
    2.3382    2.5638    0.0000 C   0  0  0  0  0  0  0  0  0  0  0  0
    3.6888    3.2162    0.0000 C   0  0  0  0  0  0  0  0  0  0  0  0
    3.7991    4.7122    0.0000 C   0  0  0  0  0  0  0  0  0  0  0  0
    4.9292    2.3728    0.0000 C   0  0  0  0  0  0  0  0  0  0  0  0
    2.2279    1.0678    0.0000 C   0  0  0  0  0  0  0  0  0  0  0  0
    3.4683    0.2244    0.0000 O   0  0  0  0  0  0  0  0  0  0  0  0
    0.8773    0.4153    0.0000 N   0  0  0  0  0  0  0  0  0  0  0  0
    0.7670   -1.0806    0.0000 C   0  0  0  0  0  0  0  0  0  0  0  0
   -0.5080   -1.8707    0.0000 C   0  0  0  0  0  0  0  0  0  0  0  0
   -0.1506   -3.3275    0.0000 O   0  0  0  0  0  0  0  0  0  0  0  0
    1.3453   -3.4378    0.0000 C   0  0  0  0  0  0  0  0  0  0  0  0
    2.1354   -4.7128    0.0000 C   0  0  0  0  0  0  0  0  0  0  0  0
    1.4262   -6.0346    0.0000 O   0  0  0  0  0  0  0  0  0  0  0  0
    1.9124   -2.0491    0.0000 C   0  0  0  0  0  0  0  0  0  0  0  0
    3.3692   -1.6917    0.0000 O   0  0  0  0  0  0  0  0  0  0  0  0
   -1.8967   -1.3036    0.0000 N   0  0  0  0  0  0  0  0  0  0  0  0
   -2.2541    0.1532    0.0000 C   0  0  0  0  0  0  0  0  0  0  0  0
   -1.4106    1.3936    0.0000 N   0  0  0  0  0  0  0  0  0  0  0  0
   -2.0631    2.7443    0.0000 C   0  0  0  0  0  0  0  0  0  0  0  0
   -3.5591    2.8545    0.0000 N   0  0  0  0  0  0  0  0  0  0  0  0
   -4.4025    1.6141    0.0000 C   0  0  0  0  0  0  0  0  0  0  0  0
   -5.8985    1.7244    0.0000 N   0  0  0  0  0  0  0  0  0  0  0  0
   -3.7500    0.2635    0.0000 C   0  0  0  0  0  0  0  0  0  0  0  0
   -4.3172   -1.1252    0.0000 N   0  0  0  0  0  0  0  0  0  0  0  0
   -3.1717   -2.0937    0.0000 C   0  0  0  0  0  0  0  0  0  0  0  0
  2  1  1  1
  2  3  1  0
  3  4  1  0
  3  5  1  0
  2  6  1  0
  6  7  2  0
  6  8  1  0
  9  8  1  6
  9 10  1  0
 10 11  1  0
 11 12  1  0
 12 13  1  1
 13 14  1  0
 12 15  1  0
 15 16  1  6
 10 17  1  1
 17 18  1  0
 18 19  2  0
 19 20  1  0
 20 21  2  0
 21 22  1  0
 22 23  1  0
 22 24  2  0
 24 25  1  0
 25 26  2  0
 24 18  1  0
 26 17  1  0
 15  9  1  0
M  END
>  <rName>  (250) 
Val-2-amino-2-deoxyadenosine

>  <PQ_SYMBOL>  (250) 
Val-2-amino-2-deoxyadenosine

>  <FULL_NAME>  (250) 
2'-(L-VALYL)AMINO-2'-DEOXYADENOSINE

>  <IUPAC_CONDENSED>  (250) 
Val-2-amino-2-deoxyadenosine

>  <IUPAC>  (250) 
(2S)-2-amino-N-((2R,3R,4S,5R)-2-(5-amino-2,4,7,9-tetraazabicyclo[4.3.0]nona-1,3,5,7-tetraen-9-yl)-4-hydroxy-5-(hydroxymethyl)oxolan-3-yl)-3-methylbutanamide

>  <TYPE>  (250) 
C-term cap

>  <CLASS>  (250) 
c_cap

>  <ANALOG>  (250) 
X

>  <MOL_WT>  (250) 
365.3940000000001

>  <LOGP>  (250) 
-1.8727999999999974

>  <TPSA>  (250) 
174.43

>  <POPULARITY>  (250) 
3.5

>  <PROTECTED>  (250) 
FALSE

>  <SMILES>  (250) 
N[C@@H](C(C)C)C(=O)N[C@H]3[C@@H](O[C@H](CO)[C@H]3O)n2c1ncnc(N)c1nc2

>  <INCHIKEY>  (250) 
UPIKYXOKKJTWAH-QNNFVPKKSA-N

$$$$
Sta-OEt
     RDKit          2D

 14 13  0  0  0  0  0  0  0  0999 V2000
   -1.7226   -1.7426    0.0000 N   0  0  0  0  0  0  0  0  0  0  0  0
   -1.6024   -0.2474    0.0000 C   0  0  0  0  0  0  0  0  0  0  0  0
   -2.8371    0.6043    0.0000 C   0  0  0  0  0  0  0  0  0  0  0  0
   -4.1921   -0.0392    0.0000 C   0  0  0  0  0  0  0  0  0  0  0  0
   -5.4269    0.8125    0.0000 C   0  0  0  0  0  0  0  0  0  0  0  0
   -4.3123   -1.5344    0.0000 C   0  0  0  0  0  0  0  0  0  0  0  0
   -0.2474    0.3961    0.0000 C   0  0  0  0  0  0  0  0  0  0  0  0
   -0.1272    1.8913    0.0000 O   0  0  0  0  0  0  0  0  0  0  0  0
    0.9873   -0.4556    0.0000 C   0  0  0  0  0  0  0  0  0  0  0  0
    2.3423    0.1879    0.0000 C   0  0  0  0  0  0  0  0  0  0  0  0
    2.4625    1.6831    0.0000 O   0  0  0  0  0  0  0  0  0  0  0  0
    3.5771   -0.6638    0.0000 O   0  0  0  0  0  0  0  0  0  0  0  0
    4.9320   -0.0203    0.0000 C   0  0  0  0  0  0  0  0  0  0  0  0
    6.1668   -0.8720    0.0000 C   0  0  0  0  0  0  0  0  0  0  0  0
  2  1  1  1
  2  3  1  0
  3  4  1  0
  4  5  1  0
  4  6  1  0
  2  7  1  0
  7  8  1  1
  7  9  1  0
  9 10  1  0
 10 11  2  0
 10 12  1  0
 12 13  1  0
 13 14  1  0
M  END
>  <rName>  (251) 
Sta-OEt

>  <PQ_SYMBOL>  (251) 
Sta-OEt

>  <FULL_NAME>  (251) 
ethyl (3S,4S)-4-amino-3-hydroxy-6-methylheptanoate

>  <IUPAC_CONDENSED>  (251) 
Sta-OEt

>  <IUPAC>  (251) 
ethyl (3S,4S)-4-amino-3-hydroxy-6-methylheptanoate

>  <TYPE>  (251) 
C-term cap

>  <CLASS>  (251) 
c_cap

>  <ANALOG>  (251) 
X

>  <MOL_WT>  (251) 
203.28199999999995

>  <LOGP>  (251) 
0.6738999999999997

>  <TPSA>  (251) 
72.55

>  <POPULARITY>  (251) 
5

>  <PROTECTED>  (251) 
FALSE

>  <SMILES>  (251) 
N[C@@H](CC(C)C)[C@@H](O)CC(=O)OCC

>  <INCHIKEY>  (251) 
WHQQUBMCFYWHIS-IUCAKERBSA-N

$$$$
Abu4S-1-guanidinopiperidin-3-yl-al
     RDKit          2D

 15 15  0  0  0  0  0  0  0  0999 V2000
    2.0217   -1.4909    0.0000 N   0  0  0  0  0  0  0  0  0  0  0  0
    2.9358   -0.3016    0.0000 C   0  0  0  0  0  0  0  0  0  0  0  0
    4.4228   -0.4986    0.0000 C   0  0  0  0  0  0  0  0  0  0  0  0
    4.9957   -1.8849    0.0000 O   0  0  0  0  0  0  0  0  0  0  0  0
    2.3629    1.0847    0.0000 C   0  0  0  0  0  0  0  0  0  0  0  0
    0.8759    1.2817    0.0000 C   0  0  0  0  0  0  0  0  0  0  0  0
   -0.0382    0.0924    0.0000 C   0  0  0  0  0  0  0  0  0  0  0  0
   -1.5252    0.2894    0.0000 N   0  0  0  0  0  0  0  0  0  0  0  0
   -2.0981    1.6757    0.0000 C   0  0  0  0  0  0  0  0  0  0  0  0
   -1.1840    2.8650    0.0000 C   0  0  0  0  0  0  0  0  0  0  0  0
    0.3031    2.6680    0.0000 C   0  0  0  0  0  0  0  0  0  0  0  0
   -2.4393   -0.8998    0.0000 C   0  0  0  0  0  0  0  0  0  0  0  0
   -1.8664   -2.2861    0.0000 N   0  0  0  0  0  0  0  0  0  0  0  0
   -3.9263   -0.7028    0.0000 N   0  0  0  0  0  0  0  0  0  0  0  0
   -4.8405   -1.8921    0.0000 H   0  0  0  0  0  0  0  0  0  0  0  0
  2  1  1  1
  2  3  1  0
  3  4  2  0
  2  5  1  0
  6  5  1  1
  6  7  1  0
  7  8  1  0
  8  9  1  0
  9 10  1  0
 10 11  1  0
  8 12  1  0
 12 13  1  0
 12 14  2  0
 14 15  1  0
 11  6  1  0
M  END
>  <rName>  (252) 
Abu4S-1-guanidinopiperidin-3-yl-al

>  <PQ_SYMBOL>  (252) 
Abu4S-1-guanidinopiperidin-3-yl-al

>  <FULL_NAME>  (252) 
(3S)-3-[(2S)-2-amino-3-oxopropyl]piperidine-1-carboximidamide

>  <IUPAC_CONDENSED>  (252) 
Abu(4S-1-guanidinopiperidin-3-yl)-al

>  <IUPAC>  (252) 
(2S)-2-amino-3-((3S)-1-((1E)-(amino)(imino)methyl)piperidin-3-yl)propanal

>  <TYPE>  (252) 
C-term cap

>  <CLASS>  (252) 
c_cap

>  <ANALOG>  (252) 
X

>  <MOL_WT>  (252) 
198.26999999999998

>  <LOGP>  (252) 
-0.4918299999999995

>  <TPSA>  (252) 
96.20000000000002

>  <POPULARITY>  (252) 
0.8

>  <PROTECTED>  (252) 
FALSE

>  <SMILES>  (252) 
N[C@H](C=O)C[C@H]1CN(CCC1)/C(/N)=N/[H]

>  <INCHIKEY>  (252) 
IRUHYIZUOLOUAT-YUMQZZPRSA-N

$$$$
Azi_Me
     RDKit          2D

  7  7  0  0  0  0  0  0  0  0999 V2000
   -1.0662   -1.4756    0.0000 N   0  0  0  0  0  0  0  0  0  0  0  0
   -0.0862   -0.3400    0.0000 C   0  0  0  0  0  0  0  0  0  0  0  0
   -1.5597   -0.0591    0.0000 C   0  0  0  0  0  0  0  0  0  0  0  0
   -2.6953    0.9209    0.0000 C   0  0  0  0  0  0  0  0  0  0  0  0
    1.3303    0.1535    0.0000 C   0  0  0  0  0  0  0  0  0  0  0  0
    1.6112    1.6269    0.0000 O   0  0  0  0  0  0  0  0  0  0  0  0
    2.4659   -0.8265    0.0000 O   0  0  0  0  0  0  0  0  0  0  0  0
  1  2  1  0
  2  3  1  0
  3  4  1  1
  2  5  1  1
  5  6  2  0
  5  7  1  0
  3  1  1  0
M  END
>  <rName>  (253) 
Azi_Me

>  <PQ_SYMBOL>  (253) 
Azi_Me

>  <FULL_NAME>  (253) 
(2S,3S)-3-methylaziridine-2-carboxylic acid

>  <IUPAC_CONDENSED>  (253) 
Azi(Me)

>  <IUPAC>  (253) 
(2S,3S)-3-methyl-aziridine-2-carboxylic acid

>  <TYPE>  (253) 
N-term cap

>  <CLASS>  (253) 
n_cap

>  <ANALOG>  (253) 
X

>  <MOL_WT>  (253) 
101.10499999999999

>  <LOGP>  (253) 
-0.5687

>  <TPSA>  (253) 
59.24000000000001

>  <POPULARITY>  (253) 
7.6

>  <PROTECTED>  (253) 
FALSE

>  <SMILES>  (253) 
N1[C@@H]([C@@H]1C)C(=O)O

>  <INCHIKEY>  (253) 
QOISFPILRGBKKL-HRFVKAFMSA-N

$$$$
Ac-Tyr
     RDKit          2D

 16 16  0  0  0  0  0  0  0  0999 V2000
   -5.2973   -1.0901    0.0000 O   0  0  0  0  0  0  0  0  0  0  0  0
   -3.9437   -0.4437    0.0000 C   0  0  0  0  0  0  0  0  0  0  0  0
   -3.8267    1.0517    0.0000 C   0  0  0  0  0  0  0  0  0  0  0  0
   -2.4731    1.6981    0.0000 C   0  0  0  0  0  0  0  0  0  0  0  0
   -1.2366    0.8491    0.0000 C   0  0  0  0  0  0  0  0  0  0  0  0
   -1.3536   -0.6464    0.0000 C   0  0  0  0  0  0  0  0  0  0  0  0
   -2.7072   -1.2928    0.0000 C   0  0  0  0  0  0  0  0  0  0  0  0
    0.1170    1.4954    0.0000 C   0  0  0  0  0  0  0  0  0  0  0  0
    1.3536    0.6464    0.0000 C   0  0  0  0  0  0  0  0  0  0  0  0
    1.2366   -0.8491    0.0000 N   0  0  0  0  0  0  0  0  0  0  0  0
    2.4731   -1.6981    0.0000 C   0  0  0  0  0  0  0  0  0  0  0  0
    3.8267   -1.0517    0.0000 O   0  0  0  0  0  0  0  0  0  0  0  0
    2.3561   -3.1935    0.0000 C   0  0  0  0  0  0  0  0  0  0  0  0
    2.7072    1.2928    0.0000 C   0  0  0  0  0  0  0  0  0  0  0  0
    2.8242    2.7882    0.0000 O   0  0  0  0  0  0  0  0  0  0  0  0
    3.9437    0.4437    0.0000 O   0  0  0  0  0  0  0  0  0  0  0  0
  1  2  1  0
  2  3  1  0
  3  4  2  0
  4  5  1  0
  5  6  2  0
  6  7  1  0
  5  8  1  0
  9  8  1  1
  9 10  1  0
 10 11  1  0
 11 12  2  0
 11 13  1  0
  9 14  1  0
 14 15  2  0
 14 16  1  0
  7  2  2  0
M  END
>  <rName>  (254) 
Ac-Tyr

>  <PQ_SYMBOL>  (254) 
Ac-Tyr

>  <FULL_NAME>  (254) 
N-acetyl-L-tyrosine

>  <IUPAC_CONDENSED>  (254) 
Ac-Tyr

>  <IUPAC>  (254) 
(2S)-3-(4-hydroxyphenyl)-2-methylcarbonylaminopropanoic acid

>  <TYPE>  (254) 
N-term cap

>  <CLASS>  (254) 
n_cap

>  <ANALOG>  (254) 
X

>  <MOL_WT>  (254) 
223.22799999999998

>  <LOGP>  (254) 
0.524

>  <TPSA>  (254) 
86.63000000000001

>  <POPULARITY>  (254) 
14.6

>  <PROTECTED>  (254) 
FALSE

>  <SMILES>  (254) 
Oc1ccc(cc1)C[C@H](NC(=O)C)C(=O)O

>  <INCHIKEY>  (254) 
CAHKINHBCWCHCF-JTQLQIEISA-N

$$$$
Ac-Hyp_oct7enyl
     RDKit          2D

 20 20  0  0  0  0  0  0  0  0999 V2000
  -10.1463    0.2684    0.0000 C   0  0  0  0  0  0  0  0  0  0  0  0
   -8.7465    0.8076    0.0000 C   0  0  0  0  0  0  0  0  0  0  0  0
   -7.5798   -0.1351    0.0000 C   0  0  0  0  0  0  0  0  0  0  0  0
   -6.1800    0.4040    0.0000 C   0  0  0  0  0  0  0  0  0  0  0  0
   -5.0132   -0.5387    0.0000 C   0  0  0  0  0  0  0  0  0  0  0  0
   -3.6135    0.0004    0.0000 C   0  0  0  0  0  0  0  0  0  0  0  0
   -2.4467   -0.9423    0.0000 C   0  0  0  0  0  0  0  0  0  0  0  0
   -1.0469   -0.4032    0.0000 C   0  0  0  0  0  0  0  0  0  0  0  0
    0.1198   -1.3459    0.0000 O   0  0  0  0  0  0  0  0  0  0  0  0
    1.5196   -0.8068    0.0000 C   0  0  0  0  0  0  0  0  0  0  0  0
    2.7785   -1.6224    0.0000 C   0  0  0  0  0  0  0  0  0  0  0  0
    3.9432   -0.6771    0.0000 C   0  0  0  0  0  0  0  0  0  0  0  0
    3.4041    0.7227    0.0000 N   0  0  0  0  0  0  0  0  0  0  0  0
    1.9062    0.6425    0.0000 C   0  0  0  0  0  0  0  0  0  0  0  0
    4.2197    1.9816    0.0000 C   0  0  0  0  0  0  0  0  0  0  0  0
    5.7177    1.9048    0.0000 O   0  0  0  0  0  0  0  0  0  0  0  0
    3.5372    3.3174    0.0000 C   0  0  0  0  0  0  0  0  0  0  0  0
    5.3925   -1.0637    0.0000 C   0  0  0  0  0  0  0  0  0  0  0  0
    6.4520   -0.0019    0.0000 O   0  0  0  0  0  0  0  0  0  0  0  0
    5.7824   -2.5122    0.0000 O   0  0  0  0  0  0  0  0  0  0  0  0
  1  2  2  0
  2  3  1  0
  3  4  1  0
  4  5  1  0
  5  6  1  0
  6  7  1  0
  7  8  1  0
  8  9  1  0
 10  9  1  1
 10 11  1  0
 11 12  1  0
 12 13  1  0
 13 14  1  0
 13 15  1  0
 15 16  2  0
 15 17  1  0
 12 18  1  6
 18 19  2  0
 18 20  1  0
 14 10  1  0
M  END
>  <rName>  (255) 
Ac-Hyp_oct7enyl

>  <PQ_SYMBOL>  (255) 
Ac-Hyp_oct7enyl

>  <FULL_NAME>  (255) 
(4R)-1-acetyl-4-(oct-7-en-1-yloxy)-L-proline

>  <IUPAC_CONDENSED>  (255) 
Ac-Hyp(oct-7-enyl)

>  <IUPAC>  (255) 
(2S,4R)-1-(acetyl)-4-((oct-7-en-1-yl)oxy)pyrrolidine-2-carboxylic acid

>  <TYPE>  (255) 
N-term cap

>  <CLASS>  (255) 
n_cap

>  <ANALOG>  (255) 
X

>  <MOL_WT>  (255) 
283.368

>  <LOGP>  (255) 
2.2135

>  <TPSA>  (255) 
66.84

>  <POPULARITY>  (255) 
4.6

>  <PROTECTED>  (255) 
FALSE

>  <SMILES>  (255) 
C=CCCCCCCO[C@@H]1C[C@H](N(C1)C(=O)C)C(=O)O

>  <INCHIKEY>  (255) 
AGAQQODVIZZKQQ-KGLIPLIRSA-N

$$$$
Ac-Hyp_hexyl
     RDKit          2D

 18 18  0  0  0  0  0  0  0  0999 V2000
   -8.6263    0.2433    0.0000 C   0  0  0  0  0  0  0  0  0  0  0  0
   -7.2076    0.7303    0.0000 C   0  0  0  0  0  0  0  0  0  0  0  0
   -6.0764   -0.2548    0.0000 C   0  0  0  0  0  0  0  0  0  0  0  0
   -4.6577    0.2323    0.0000 C   0  0  0  0  0  0  0  0  0  0  0  0
   -3.5265   -0.7529    0.0000 C   0  0  0  0  0  0  0  0  0  0  0  0
   -2.1078   -0.2658    0.0000 C   0  0  0  0  0  0  0  0  0  0  0  0
   -0.9766   -1.2509    0.0000 O   0  0  0  0  0  0  0  0  0  0  0  0
    0.4421   -0.7639    0.0000 C   0  0  0  0  0  0  0  0  0  0  0  0
    1.6701   -1.6253    0.0000 C   0  0  0  0  0  0  0  0  0  0  0  0
    2.8688   -0.7237    0.0000 C   0  0  0  0  0  0  0  0  0  0  0  0
    2.3818    0.6950    0.0000 N   0  0  0  0  0  0  0  0  0  0  0  0
    0.8820    0.6702    0.0000 C   0  0  0  0  0  0  0  0  0  0  0  0
    3.2433    1.9230    0.0000 C   0  0  0  0  0  0  0  0  0  0  0  0
    4.7374    1.7909    0.0000 O   0  0  0  0  0  0  0  0  0  0  0  0
    2.6106    3.2830    0.0000 C   0  0  0  0  0  0  0  0  0  0  0  0
    4.3029   -1.1636    0.0000 C   0  0  0  0  0  0  0  0  0  0  0  0
    5.4009   -0.1416    0.0000 O   0  0  0  0  0  0  0  0  0  0  0  0
    4.6390   -2.6254    0.0000 O   0  0  0  0  0  0  0  0  0  0  0  0
  1  2  1  0
  2  3  1  0
  3  4  1  0
  4  5  1  0
  5  6  1  0
  6  7  1  0
  8  7  1  1
  8  9  1  0
  9 10  1  0
 10 11  1  0
 11 12  1  0
 11 13  1  0
 13 14  2  0
 13 15  1  0
 10 16  1  6
 16 17  2  0
 16 18  1  0
 12  8  1  0
M  END
>  <rName>  (256) 
Ac-Hyp_hexyl

>  <PQ_SYMBOL>  (256) 
Ac-Hyp_hexyl

>  <FULL_NAME>  (256) 
(4R)-1-acetyl-4-(hexyloxy)-L-proline

>  <IUPAC_CONDENSED>  (256) 
Ac-Hyp(hexyl)

>  <IUPAC>  (256) 
(2S,4R)-1-(acetyl)-4-(hexyloxy)pyrrolidine-2-carboxylic acid

>  <TYPE>  (256) 
N-term cap

>  <CLASS>  (256) 
n_cap

>  <ANALOG>  (256) 
X

>  <MOL_WT>  (256) 
257.3299999999999

>  <LOGP>  (256) 
1.6573000000000002

>  <TPSA>  (256) 
66.84

>  <POPULARITY>  (256) 
5.8

>  <PROTECTED>  (256) 
FALSE

>  <SMILES>  (256) 
CCCCCCO[C@@H]1C[C@H](N(C1)C(=O)C)C(=O)O

>  <INCHIKEY>  (256) 
BVWGMAOUTMUKFR-NEPJUHHUSA-N

$$$$
NMe-Leu_4OAc
     RDKit          2D

 15 14  0  0  0  0  0  0  0  0999 V2000
    3.2914   -1.2397    0.0000 N   0  0  0  0  0  0  0  0  0  0  0  0
    4.5392   -0.4073    0.0000 C   0  0  0  0  0  0  0  0  0  0  0  0
    1.9465   -0.5753    0.0000 C   0  0  0  0  0  0  0  0  0  0  0  0
    1.8495    0.9215    0.0000 C   0  0  0  0  0  0  0  0  0  0  0  0
    0.5047    1.5860    0.0000 C   0  0  0  0  0  0  0  0  0  0  0  0
    3.0974    1.7540    0.0000 C   0  0  0  0  0  0  0  0  0  0  0  0
    0.6987   -1.4078    0.0000 C   0  0  0  0  0  0  0  0  0  0  0  0
   -0.6461   -0.7433    0.0000 C   0  0  0  0  0  0  0  0  0  0  0  0
   -0.7431    0.7535    0.0000 O   0  0  0  0  0  0  0  0  0  0  0  0
   -2.0879    1.4179    0.0000 C   0  0  0  0  0  0  0  0  0  0  0  0
   -3.3357    0.5855    0.0000 O   0  0  0  0  0  0  0  0  0  0  0  0
   -2.1849    2.9148    0.0000 C   0  0  0  0  0  0  0  0  0  0  0  0
   -1.8939   -1.5758    0.0000 C   0  0  0  0  0  0  0  0  0  0  0  0
   -1.7969   -3.0726    0.0000 O   0  0  0  0  0  0  0  0  0  0  0  0
   -3.2387   -0.9114    0.0000 O   0  0  0  0  0  0  0  0  0  0  0  0
  1  2  1  0
  1  3  1  0
  3  4  1  0
  4  5  1  0
  4  6  1  0
  3  7  1  6
  8  7  1  6
  8  9  1  0
  9 10  1  0
 10 11  2  0
 10 12  1  0
  8 13  1  0
 13 14  2  0
 13 15  1  0
M  END
>  <rName>  (257) 
NMe-Leu_4OAc

>  <PQ_SYMBOL>  (257) 
NMe-Leu_4OAc

>  <FULL_NAME>  (257) 
(2R,4R)-2-(acetyloxy)-5-methyl-4-(methylamino)hexanoic acid

>  <IUPAC_CONDENSED>  (257) 
NMe-Leu(4-OAc)

>  <IUPAC>  (257) 
(2R,4R)-5-methyl-4-(methylamino)-2-(acetoxy)hexanoic acid

>  <TYPE>  (257) 
N-term cap

>  <CLASS>  (257) 
n_cap

>  <ANALOG>  (257) 
X

>  <MOL_WT>  (257) 
217.265

>  <LOGP>  (257) 
0.6367999999999998

>  <TPSA>  (257) 
75.63

>  <POPULARITY>  (257) 
1.1

>  <PROTECTED>  (257) 
FALSE

>  <SMILES>  (257) 
N(C)[C@@H](C(C)C)C[C@@H](OC(=O)C)C(=O)O

>  <INCHIKEY>  (257) 
YRGKJOMDOOLXCN-RKDXNWHRSA-N

$$$$
2Me-thiazole-5-carbonyl
     RDKit          2D

  9  9  0  0  0  0  0  0  0  0999 V2000
   -3.3052   -0.8467    0.0000 C   0  0  0  0  0  0  0  0  0  0  0  0
   -1.9481   -0.2077    0.0000 C   0  0  0  0  0  0  0  0  0  0  0  0
   -0.6334   -0.9301    0.0000 S   0  0  0  0  0  0  0  0  0  0  0  0
    0.4598    0.0969    0.0000 C   0  0  0  0  0  0  0  0  0  0  0  0
   -0.1792    1.4541    0.0000 C   0  0  0  0  0  0  0  0  0  0  0  0
   -1.6673    1.2657    0.0000 N   0  0  0  0  0  0  0  0  0  0  0  0
    1.9333   -0.1838    0.0000 C   0  0  0  0  0  0  0  0  0  0  0  0
    2.9132    0.9519    0.0000 O   0  0  0  0  0  0  0  0  0  0  0  0
    2.4269   -1.6003    0.0000 O   0  0  0  0  0  0  0  0  0  0  0  0
  1  2  1  0
  2  3  1  0
  3  4  1  0
  4  5  2  0
  5  6  1  0
  4  7  1  0
  7  8  2  0
  7  9  1  0
  6  2  2  0
M  END
>  <rName>  (258) 
2Me-thiazole-5-carbonyl

>  <PQ_SYMBOL>  (258) 
2Me-thiazole-5-carbonyl

>  <FULL_NAME>  (258) 
2-methyl-1,3-thiazole-5-carboxylic acid

>  <IUPAC_CONDENSED>  (258) 
2Me-thiazole-5-carbonyl

>  <IUPAC>  (258) 
2-methylthiazole-5-carboxylic acid

>  <TYPE>  (258) 
N-term cap

>  <CLASS>  (258) 
n_cap

>  <ANALOG>  (258) 
X

>  <MOL_WT>  (258) 
143.167

>  <LOGP>  (258) 
1.1497199999999999

>  <TPSA>  (258) 
50.19

>  <POPULARITY>  (258) 
16.7

>  <PROTECTED>  (258) 
FALSE

>  <SMILES>  (258) 
Cc1sc(cn1)C(=O)O

>  <INCHIKEY>  (258) 
QCXCIYPOMMIBHO-UHFFFAOYSA-N

$$$$
NMe-D-aMePro
     RDKit          2D

 10 10  0  0  0  0  0  0  0  0999 V2000
   -1.9342   -1.0347    0.0000 C   0  0  0  0  0  0  0  0  0  0  0  0
   -0.4407   -0.8959    0.0000 N   0  0  0  0  0  0  0  0  0  0  0  0
    0.5495   -2.0226    0.0000 C   0  0  0  0  0  0  0  0  0  0  0  0
   -0.1112    0.5674    0.0000 C   0  0  0  0  0  0  0  0  0  0  0  0
    0.5154    1.9303    0.0000 C   0  0  0  0  0  0  0  0  0  0  0  0
   -1.4011    1.3330    0.0000 C   0  0  0  0  0  0  0  0  0  0  0  0
   -2.5278    0.3428    0.0000 C   0  0  0  0  0  0  0  0  0  0  0  0
    1.3097    0.0868    0.0000 C   0  0  0  0  0  0  0  0  0  0  0  0
    2.4364    1.0770    0.0000 O   0  0  0  0  0  0  0  0  0  0  0  0
    1.6039   -1.3841    0.0000 O   0  0  0  0  0  0  0  0  0  0  0  0
  1  2  1  0
  2  3  1  0
  2  4  1  0
  4  5  1  1
  4  6  1  0
  6  7  1  0
  4  8  1  0
  8  9  2  0
  8 10  1  0
  7  1  1  0
M  END
>  <rName>  (259) 
NMe-D-aMePro

>  <PQ_SYMBOL>  (259) 
NMe-D-aMePro

>  <FULL_NAME>  (259) 
(2~{R})-1,2-dimethylpyrrolidine-2-carboxylic acid

>  <IUPAC_CONDENSED>  (259) 
Me-D-aMePro

>  <IUPAC>  (259) 
(2R)-1,2-dimethylpyrrolidine-2-carboxylic acid

>  <TYPE>  (259) 
N-term cap

>  <CLASS>  (259) 
n_cap

>  <ANALOG>  (259) 
X

>  <MOL_WT>  (259) 
143.186

>  <LOGP>  (259) 
0.5552999999999999

>  <TPSA>  (259) 
40.540000000000006

>  <POPULARITY>  (259) 
8.1

>  <PROTECTED>  (259) 
FALSE

>  <SMILES>  (259) 
C1N(C)[C@](C)(CC1)C(=O)O

>  <INCHIKEY>  (259) 
BWNGEDLBTNTBMD-SSDOTTSWSA-N

$$$$
Asp_piperidino
     RDKit          2D

 14 14  0  0  0  0  0  0  0  0999 V2000
   -2.6678   -1.7574    0.0000 N   0  0  0  0  0  0  0  0  0  0  0  0
   -2.4057   -0.2804    0.0000 C   0  0  0  0  0  0  0  0  0  0  0  0
   -0.9956    0.2311    0.0000 C   0  0  0  0  0  0  0  0  0  0  0  0
    0.1524   -0.7344    0.0000 C   0  0  0  0  0  0  0  0  0  0  0  0
   -0.1097   -2.2113    0.0000 O   0  0  0  0  0  0  0  0  0  0  0  0
    1.5625   -0.2228    0.0000 N   0  0  0  0  0  0  0  0  0  0  0  0
    1.8246    1.2541    0.0000 C   0  0  0  0  0  0  0  0  0  0  0  0
    3.2347    1.7656    0.0000 C   0  0  0  0  0  0  0  0  0  0  0  0
    4.3827    0.8002    0.0000 C   0  0  0  0  0  0  0  0  0  0  0  0
    4.1206   -0.6768    0.0000 C   0  0  0  0  0  0  0  0  0  0  0  0
    2.7105   -1.1883    0.0000 C   0  0  0  0  0  0  0  0  0  0  0  0
   -3.5537    0.6850    0.0000 C   0  0  0  0  0  0  0  0  0  0  0  0
   -3.2917    2.1619    0.0000 O   0  0  0  0  0  0  0  0  0  0  0  0
   -4.9638    0.1735    0.0000 O   0  0  0  0  0  0  0  0  0  0  0  0
  2  1  1  6
  2  3  1  0
  3  4  1  0
  4  5  2  0
  4  6  1  0
  6  7  1  0
  7  8  1  0
  8  9  1  0
  9 10  1  0
 10 11  1  0
  2 12  1  0
 12 13  2  0
 12 14  1  0
 11  6  1  0
M  END
>  <rName>  (260) 
Asp_piperidino

>  <PQ_SYMBOL>  (260) 
Asp_piperidino

>  <FULL_NAME>  (260) 
(2S)-2-amino-4-oxo-4-(piperidin-1-yl)butanoic acid

>  <IUPAC_CONDENSED>  (260) 
Asp(piperidino)

>  <IUPAC>  (260) 
(2S)-2-amino-4-oxo-4-(piperidin-1-yl)butanoic acid

>  <TYPE>  (260) 
N-term cap

>  <CLASS>  (260) 
n_cap

>  <ANALOG>  (260) 
X

>  <MOL_WT>  (260) 
200.23799999999997

>  <LOGP>  (260) 
-0.19910000000000033

>  <TPSA>  (260) 
83.63000000000001

>  <POPULARITY>  (260) 
3.8

>  <PROTECTED>  (260) 
FALSE

>  <SMILES>  (260) 
N[C@@H](CC(=O)N1(CCCCC1))C(=O)O

>  <INCHIKEY>  (260) 
DFQJEDOASBZINA-ZETCQYMHSA-N

$$$$
D-hPro-
     RDKit          2D

  9  9  0  0  0  0  0  0  0  0999 V2000
   -0.8806   -1.0024    0.0000 N   0  0  0  0  0  0  0  0  0  0  0  0
   -0.4728    0.4411    0.0000 C   0  0  0  0  0  0  0  0  0  0  0  0
   -1.7196    1.2750    0.0000 C   0  0  0  0  0  0  0  0  0  0  0  0
   -2.8980    0.3469    0.0000 C   0  0  0  0  0  0  0  0  0  0  0  0
   -2.3794   -1.0606    0.0000 C   0  0  0  0  0  0  0  0  0  0  0  0
    0.9347    0.9597    0.0000 C   0  0  0  0  0  0  0  0  0  0  0  0
    2.0876   -0.0000    0.0000 C   0  0  0  0  0  0  0  0  0  0  0  0
    1.8329   -1.4782    0.0000 O   0  0  0  0  0  0  0  0  0  0  0  0
    3.4951    0.5186    0.0000 O   0  0  0  0  0  0  0  0  0  0  0  0
  1  2  1  0
  2  3  1  0
  3  4  1  0
  4  5  1  0
  2  6  1  6
  6  7  1  0
  7  8  2  0
  7  9  1  0
  5  1  1  0
M  END
>  <rName>  (261) 
D-hPro-

>  <PQ_SYMBOL>  (261) 
D-hPro-

>  <FULL_NAME>  (261) 
(R)-homoproline

>  <IUPAC_CONDENSED>  (261) 
D-hPro

>  <IUPAC>  (261) 
2-((2R)-pyrrolidin-2-yl)acetic acid

>  <TYPE>  (261) 
N-term cap

>  <CLASS>  (261) 
n_cap

>  <ANALOG>  (261) 
X

>  <MOL_WT>  (261) 
129.15900000000002

>  <LOGP>  (261) 
0.2131

>  <TPSA>  (261) 
49.33

>  <POPULARITY>  (261) 
11.7

>  <PROTECTED>  (261) 
FALSE

>  <SMILES>  (261) 
N1[C@H](CCC1)CC(=O)O

>  <INCHIKEY>  (261) 
ADSALMJPJUKESW-RXMQYKEDSA-N

$$$$
Thr-NH2
     RDKit          2D

  8  7  0  0  0  0  0  0  0  0999 V2000
    0.0000   -2.0625    0.0000 N   0  0  0  0  0  0  0  0  0  0  0  0
    0.0000   -0.5625    0.0000 C   0  0  0  0  0  0  0  0  0  0  0  0
    1.2990    0.1875    0.0000 C   0  0  0  0  0  0  0  0  0  0  0  0
    1.2990    1.6875    0.0000 O   0  0  0  0  0  0  0  0  0  0  0  0
    2.5981   -0.5625    0.0000 N   0  0  0  0  0  0  0  0  0  0  0  0
   -1.2990    0.1875    0.0000 C   0  0  0  0  0  0  0  0  0  0  0  0
   -2.5981   -0.5625    0.0000 C   0  0  0  0  0  0  0  0  0  0  0  0
   -1.2990    1.6875    0.0000 O   0  0  0  0  0  0  0  0  0  0  0  0
  2  1  1  1
  2  3  1  0
  3  4  2  0
  3  5  1  0
  2  6  1  0
  6  7  1  1
  6  8  1  0
M  END
>  <rName>  (262) 
Thr-NH2

>  <PQ_SYMBOL>  (262) 
Thr-NH2

>  <FULL_NAME>  (262) 
(2S,3R)-2-amino-3-hydroxy-butanamide

>  <IUPAC_CONDENSED>  (262) 
Thr-NH2

>  <IUPAC>  (262) 
(2S,3R)-2-amino-3-hydroxybutanamide

>  <TYPE>  (262) 
C-term cap

>  <CLASS>  (262) 
c_cap

>  <ANALOG>  (262) 
X

>  <MOL_WT>  (262) 
118.13599999999998

>  <LOGP>  (262) 
-1.8202000000000003

>  <TPSA>  (262) 
89.34

>  <POPULARITY>  (262) 
16.7

>  <PROTECTED>  (262) 
FALSE

>  <SMILES>  (262) 
N[C@H](C(=O)N)[C@@H](C)O

>  <INCHIKEY>  (262) 
PZUOEYPTQJILHP-GBXIJSLDSA-N

$$$$
Sec-NH2
     RDKit          2D

  7  6  0  0  0  0  0  0  0  0999 V2000
    0.5797   -1.7367    0.0000 N   0  0  0  0  0  0  0  0  0  0  0  0
    0.2514   -0.2730    0.0000 C   0  0  0  0  0  0  0  0  0  0  0  0
   -1.1803    0.1745    0.0000 C   0  0  0  0  0  0  0  0  0  0  0  0
   -1.5086    1.6381    0.0000 O   0  0  0  0  0  0  0  0  0  0  0  0
   -2.2837   -0.8417    0.0000 N   0  0  0  0  0  0  0  0  0  0  0  0
    1.3548    0.7431    0.0000 C   0  0  0  0  0  0  0  0  0  0  0  0
    2.7865    0.2956    0.0000 Se  0  0  0  0  0  2  0  0  0  0  0  0
  2  1  1  6
  2  3  1  0
  3  4  2  0
  3  5  1  0
  2  6  1  0
  6  7  1  0
M  END
>  <rName>  (263) 
Sec-NH2

>  <PQ_SYMBOL>  (263) 
Sec-NH2

>  <FULL_NAME>  (263) 
3-selanyl-L-alaninamide

>  <IUPAC_CONDENSED>  (263) 
Sec-NH2

>  <IUPAC>  (263) 
(2R)-2-amino-3-selanylpropanamide

>  <TYPE>  (263) 
C-term cap

>  <CLASS>  (263) 
c_cap

>  <ANALOG>  (263) 
X

>  <MOL_WT>  (263) 
167.07000000000002

>  <LOGP>  (263) 
-1.8819

>  <TPSA>  (263) 
69.11

>  <POPULARITY>  (263) 
5.1

>  <PROTECTED>  (263) 
FALSE

>  <SMILES>  (263) 
N[C@H](C(=O)N)C[SeH]

>  <INCHIKEY>  (263) 
CLZAHPNIIBPCBI-REOHCLBHSA-N

$$$$
34-dehydro-Pro
     RDKit          2D

  8  8  0  0  0  0  0  0  0  0999 V2000
   -2.2608   -0.7500    0.0000 C   0  0  0  0  0  0  0  0  0  0  0  0
   -0.8342   -1.2135    0.0000 C   0  0  0  0  0  0  0  0  0  0  0  0
    0.0475    0.0000    0.0000 C   0  0  0  0  0  0  0  0  0  0  0  0
   -0.8342    1.2135    0.0000 N   0  0  0  0  0  0  0  0  0  0  0  0
   -2.2608    0.7500    0.0000 C   0  0  0  0  0  0  0  0  0  0  0  0
    1.5475    0.0000    0.0000 C   0  0  0  0  0  0  0  0  0  0  0  0
    2.2975    1.2990    0.0000 O   0  0  0  0  0  0  0  0  0  0  0  0
    2.2975   -1.2990    0.0000 O   0  0  0  0  0  0  0  0  0  0  0  0
  1  2  1  0
  2  3  1  0
  3  4  1  0
  4  5  2  0
  3  6  1  6
  6  7  2  0
  6  8  1  0
  5  1  1  0
M  END
>  <rName>  (264) 
34-dehydro-Pro

>  <PQ_SYMBOL>  (264) 
34-dehydro-Pro

>  <FULL_NAME>  (264) 
(2S)-3,4-dihydro-2H-pyrrole-2-carboxylic acid

>  <IUPAC_CONDENSED>  (264) 
3,4-dehydro-Pro

>  <IUPAC>  (264) 
(2S)-1-azacyclopent-5-ene-2-carboxylic acid

>  <TYPE>  (264) 
N-term cap

>  <CLASS>  (264) 
n_cap

>  <ANALOG>  (264) 
X

>  <MOL_WT>  (264) 
113.11599999999997

>  <LOGP>  (264) 
0.30419999999999997

>  <TPSA>  (264) 
49.66

>  <POPULARITY>  (264) 
6.8

>  <PROTECTED>  (264) 
FALSE

>  <SMILES>  (264) 
C1C[C@H](N=C1)C(=O)O

>  <INCHIKEY>  (264) 
DWAKNKKXGALPNW-BYPYZUCNSA-N

$$$$
D-NvaPh-NHMe
     RDKit          2D

 15 15  0  0  0  0  0  0  0  0999 V2000
   -2.2651    1.8109    0.0000 N   0  0  0  0  0  0  0  0  0  0  0  0
   -2.4905    0.3279    0.0000 C   0  0  0  0  0  0  0  0  0  0  0  0
   -3.8875   -0.2184    0.0000 C   0  0  0  0  0  0  0  0  0  0  0  0
   -4.1128   -1.7013    0.0000 O   0  0  0  0  0  0  0  0  0  0  0  0
   -5.0591    0.7183    0.0000 N   0  0  0  0  0  0  0  0  0  0  0  0
   -6.4560    0.1720    0.0000 C   0  0  0  0  0  0  0  0  0  0  0  0
   -1.3189   -0.6087    0.0000 C   0  0  0  0  0  0  0  0  0  0  0  0
    0.0781   -0.0624    0.0000 C   0  0  0  0  0  0  0  0  0  0  0  0
    1.2497   -0.9991    0.0000 C   0  0  0  0  0  0  0  0  0  0  0  0
    2.6467   -0.4528    0.0000 C   0  0  0  0  0  0  0  0  0  0  0  0
    2.8721    1.0301    0.0000 C   0  0  0  0  0  0  0  0  0  0  0  0
    4.2691    1.5764    0.0000 C   0  0  0  0  0  0  0  0  0  0  0  0
    5.4407    0.6398    0.0000 C   0  0  0  0  0  0  0  0  0  0  0  0
    5.2153   -0.8432    0.0000 C   0  0  0  0  0  0  0  0  0  0  0  0
    3.8183   -1.3895    0.0000 C   0  0  0  0  0  0  0  0  0  0  0  0
  2  1  1  6
  2  3  1  0
  3  4  2  0
  3  5  1  0
  5  6  1  0
  2  7  1  0
  7  8  1  0
  8  9  1  0
  9 10  1  0
 10 11  2  0
 11 12  1  0
 12 13  2  0
 13 14  1  0
 14 15  2  0
 15 10  1  0
M  END
>  <rName>  (265) 
D-NvaPh-NHMe

>  <PQ_SYMBOL>  (265) 
D-NvaPh-NHMe

>  <FULL_NAME>  (265) 
(2~{R})-2-azanyl-~{N}-methyl-5-phenyl-pentanamide

>  <IUPAC_CONDENSED>  (265) 
D-Nva(Ph)-NHMe

>  <IUPAC>  (265) 
(2R)-2-amino-N-methyl-5-phenylpentanamide

>  <TYPE>  (265) 
C-term cap

>  <CLASS>  (265) 
c_cap

>  <ANALOG>  (265) 
X

>  <MOL_WT>  (265) 
206.28900000000002

>  <LOGP>  (265) 
1.0825999999999991

>  <TPSA>  (265) 
55.120000000000005

>  <POPULARITY>  (265) 
10.2

>  <PROTECTED>  (265) 
FALSE

>  <SMILES>  (265) 
N[C@@H](C(=O)NC)CCCc1ccccc1

>  <INCHIKEY>  (265) 
LLYRTUKTZDQAQG-LLVKDONJSA-N

$$$$
D-4Pal-NHMe
     RDKit          2D

 13 13  0  0  0  0  0  0  0  0999 V2000
   -0.8522    1.6213    0.0000 N   0  0  0  0  0  0  0  0  0  0  0  0
   -1.1939    0.1607    0.0000 C   0  0  0  0  0  0  0  0  0  0  0  0
   -2.6296   -0.2737    0.0000 C   0  0  0  0  0  0  0  0  0  0  0  0
   -2.9712   -1.7343    0.0000 O   0  0  0  0  0  0  0  0  0  0  0  0
   -3.7237    0.7525    0.0000 N   0  0  0  0  0  0  0  0  0  0  0  0
   -5.1594    0.3180    0.0000 C   0  0  0  0  0  0  0  0  0  0  0  0
   -0.0998   -0.8654    0.0000 C   0  0  0  0  0  0  0  0  0  0  0  0
    1.3359   -0.4310    0.0000 C   0  0  0  0  0  0  0  0  0  0  0  0
    1.6775    1.0296    0.0000 C   0  0  0  0  0  0  0  0  0  0  0  0
    3.1133    1.4640    0.0000 C   0  0  0  0  0  0  0  0  0  0  0  0
    4.2073    0.4379    0.0000 N   0  0  0  0  0  0  0  0  0  0  0  0
    3.8657   -1.0227    0.0000 C   0  0  0  0  0  0  0  0  0  0  0  0
    2.4300   -1.4571    0.0000 C   0  0  0  0  0  0  0  0  0  0  0  0
  2  1  1  6
  2  3  1  0
  3  4  2  0
  3  5  1  0
  5  6  1  0
  2  7  1  0
  7  8  1  0
  8  9  1  0
  9 10  2  0
 10 11  1  0
 11 12  2  0
 12 13  1  0
 13  8  2  0
M  END
>  <rName>  (266) 
D-4Pal-NHMe

>  <PQ_SYMBOL>  (266) 
D-4Pal-NHMe

>  <FULL_NAME>  (266) 
(2~{R})-2-azanyl-~{N}-methyl-3-pyridin-4-yl-propanamide

>  <IUPAC_CONDENSED>  (266) 
D-4Pal-NHMe

>  <IUPAC>  (266) 
(2R)-2-amino-N-methyl-3-(pyridin-4-yl)propanamide

>  <TYPE>  (266) 
C-term cap

>  <CLASS>  (266) 
c_cap

>  <ANALOG>  (266) 
X

>  <MOL_WT>  (266) 
179.223

>  <LOGP>  (266) 
-0.3026

>  <TPSA>  (266) 
68.01

>  <POPULARITY>  (266) 
9.5

>  <PROTECTED>  (266) 
FALSE

>  <SMILES>  (266) 
N[C@@H](C(=O)NC)Cc1ccncc1

>  <INCHIKEY>  (266) 
LJVDSZALHNBLNR-MRVPVSSYSA-N

$$$$
Arg-NH2
     RDKit          2D

 12 11  0  0  0  0  0  0  0  0999 V2000
    2.4617   -1.9005    0.0000 N   0  0  0  0  0  0  0  0  0  0  0  0
    2.4001   -0.4018    0.0000 C   0  0  0  0  0  0  0  0  0  0  0  0
    3.6672    0.4010    0.0000 C   0  0  0  0  0  0  0  0  0  0  0  0
    3.6056    1.8997    0.0000 O   0  0  0  0  0  0  0  0  0  0  0  0
    4.9960   -0.2950    0.0000 N   0  0  0  0  0  0  0  0  0  0  0  0
    1.0713    0.2943    0.0000 C   0  0  0  0  0  0  0  0  0  0  0  0
   -0.1958   -0.5085    0.0000 C   0  0  0  0  0  0  0  0  0  0  0  0
   -1.5245    0.1875    0.0000 C   0  0  0  0  0  0  0  0  0  0  0  0
   -2.7917   -0.6152    0.0000 N   0  0  0  0  0  0  0  0  0  0  0  0
   -4.1204    0.0808    0.0000 C   0  0  0  0  0  0  0  0  0  0  0  0
   -4.1820    1.5796    0.0000 N   0  0  0  0  0  0  0  0  0  0  0  0
   -5.3876   -0.7219    0.0000 N   0  0  0  0  0  0  0  0  0  0  0  0
  2  1  1  1
  2  3  1  0
  3  4  2  0
  3  5  1  0
  2  6  1  0
  6  7  1  0
  7  8  1  0
  8  9  1  0
  9 10  1  0
 10 11  2  0
 10 12  1  0
M  END
>  <rName>  (267) 
Arg-NH2

>  <PQ_SYMBOL>  (267) 
Arg-NH2

>  <FULL_NAME>  (267) 
ARGININEAMIDE

>  <IUPAC_CONDENSED>  (267) 
Arg-NH2

>  <IUPAC>  (267) 
(2S)-2-amino-5-(((amino)(imino)methyl)amino)pentanamide

>  <TYPE>  (267) 
C-term cap

>  <CLASS>  (267) 
c_cap

>  <ANALOG>  (267) 
X

>  <MOL_WT>  (267) 
173.22000000000003

>  <LOGP>  (267) 
-1.9377299999999993

>  <TPSA>  (267) 
131.01000000000002

>  <POPULARITY>  (267) 
22.5

>  <PROTECTED>  (267) 
FALSE

>  <SMILES>  (267) 
N[C@H](C(=O)N)CCCNC(=N)N

>  <INCHIKEY>  (267) 
ULEBESPCVWBNIF-BYPYZUCNSA-N

$$$$
Ala-SH
     RDKit          2D

  6  5  0  0  0  0  0  0  0  0999 V2000
    1.5000   -1.2990    0.0000 N   0  0  0  0  0  0  0  0  0  0  0  0
    0.7500    0.0000    0.0000 C   0  0  0  0  0  0  0  0  0  0  0  0
    1.5000    1.2990    0.0000 C   0  0  0  0  0  0  0  0  0  0  0  0
   -0.7500   -0.0000    0.0000 C   0  0  0  0  0  0  0  0  0  0  0  0
   -1.5000   -1.2990    0.0000 O   0  0  0  0  0  0  0  0  0  0  0  0
   -1.5000    1.2990    0.0000 S   0  0  0  0  0  0  0  0  0  0  0  0
  1  2  1  0
  2  3  1  6
  2  4  1  0
  4  5  1  0
  4  6  2  0
M  END
>  <rName>  (268) 
Ala-SH

>  <PQ_SYMBOL>  (268) 
Ala-SH

>  <FULL_NAME>  (268) 
THIOALANINE

>  <IUPAC_CONDENSED>  (268) 
Ala-SH

>  <IUPAC>  (268) 
(2S)-2-amino-1-thioxopropan-1-ol

>  <TYPE>  (268) 
C-term cap

>  <CLASS>  (268) 
c_cap

>  <ANALOG>  (268) 
X

>  <MOL_WT>  (268) 
105.16199999999998

>  <LOGP>  (268) 
0.2189999999999998

>  <TPSA>  (268) 
46.25

>  <POPULARITY>  (268) 
4

>  <PROTECTED>  (268) 
FALSE

>  <SMILES>  (268) 
N[C@@H](C)C(O)=S

>  <INCHIKEY>  (268) 
YXXURDJTDAAEPH-REOHCLBHSA-N

$$$$
LysPOOHOC10N5O3-al
     RDKit          2D

 31 33  0  0  0  0  0  0  0  0999 V2000
  -10.3621   -0.9255    0.0000 N   0  0  0  0  0  0  0  0  0  0  0  0
   -9.9169    0.5069    0.0000 C   0  0  0  0  0  0  0  0  0  0  0  0
  -10.9348    1.6086    0.0000 C   0  0  0  0  0  0  0  0  0  0  0  0
  -12.3979    1.2780    0.0000 O   0  0  0  0  0  0  0  0  0  0  0  0
   -8.4538    0.8375    0.0000 C   0  0  0  0  0  0  0  0  0  0  0  0
   -7.4359   -0.2642    0.0000 C   0  0  0  0  0  0  0  0  0  0  0  0
   -5.9728    0.0665    0.0000 C   0  0  0  0  0  0  0  0  0  0  0  0
   -4.9548   -1.0353    0.0000 C   0  0  0  0  0  0  0  0  0  0  0  0
   -3.4917   -0.7046    0.0000 N   0  0  0  0  0  0  0  0  0  0  0  0
   -2.4738   -1.8064    0.0000 P   0  0  0  0  0  5  0  0  0  0  0  0
   -1.4559   -2.9081    0.0000 O   0  0  0  0  0  0  0  0  0  0  0  0
   -3.5756   -2.8243    0.0000 O   0  0  0  0  0  0  0  0  0  0  0  0
   -1.3721   -0.7884    0.0000 O   0  0  0  0  0  0  0  0  0  0  0  0
    0.0603   -1.2336    0.0000 C   0  0  0  0  0  0  0  0  0  0  0  0
    1.1621   -0.2157    0.0000 C   0  0  0  0  0  0  0  0  0  0  0  0
    2.6332   -0.5087    0.0000 O   0  0  0  0  0  0  0  0  0  0  0  0
    3.3665    0.7998    0.0000 C   0  0  0  0  0  0  0  0  0  0  0  0
    2.3485    1.9016    0.0000 C   0  0  0  0  0  0  0  0  0  0  0  0
    2.6416    3.3727    0.0000 O   0  0  0  0  0  0  0  0  0  0  0  0
    0.9862    1.2739    0.0000 C   0  0  0  0  0  0  0  0  0  0  0  0
   -0.3224    2.0072    0.0000 O   0  0  0  0  0  0  0  0  0  0  0  0
    4.8561    0.9757    0.0000 N   0  0  0  0  0  0  0  0  0  0  0  0
    5.8740   -0.1260    0.0000 C   0  0  0  0  0  0  0  0  0  0  0  0
    5.7364   -1.6197    0.0000 N   0  0  0  0  0  0  0  0  0  0  0  0
    6.9611   -2.4857    0.0000 C   0  0  0  0  0  0  0  0  0  0  0  0
    8.3235   -1.8581    0.0000 N   0  0  0  0  0  0  0  0  0  0  0  0
    8.4611   -0.3644    0.0000 C   0  0  0  0  0  0  0  0  0  0  0  0
    9.8235    0.2632    0.0000 N   0  0  0  0  0  0  0  0  0  0  0  0
    7.2364    0.5016    0.0000 C   0  0  0  0  0  0  0  0  0  0  0  0
    7.0605    1.9913    0.0000 N   0  0  0  0  0  0  0  0  0  0  0  0
    5.5894    2.2843    0.0000 C   0  0  0  0  0  0  0  0  0  0  0  0
  2  1  1  6
  2  3  1  0
  3  4  2  0
  2  5  1  0
  5  6  1  0
  6  7  1  0
  7  8  1  0
  8  9  1  0
  9 10  1  0
 10 11  2  0
 10 12  1  1
 10 13  1  0
 13 14  1  0
 15 14  1  6
 15 16  1  0
 16 17  1  0
 17 18  1  0
 18 19  1  1
 18 20  1  0
 20 21  1  1
 17 22  1  6
 22 23  1  0
 23 24  2  0
 24 25  1  0
 25 26  2  0
 26 27  1  0
 27 28  1  0
 27 29  2  0
 29 30  1  0
 30 31  2  0
 29 23  1  0
 31 22  1  0
 20 15  1  0
M  END
>  <rName>  (269) 
LysPOOHOC10N5O3-al

>  <PQ_SYMBOL>  (269) 
LysPOOHOC10N5O3-al

>  <FULL_NAME>  (269) 
5'-O-[(S)-{[(5S)-5-AMINO-6-OXOHEXYL]AMINO}(HYDROXY)PHOSPHORYL]ADENOSINE

>  <IUPAC_CONDENSED>  (269) 
Lys(PO(OH,OC10N5O3))-al

>  <IUPAC>  (269) 
N-[(5S)-5-amino-6-oxo-hexyl]-[[(2R,3S,4R,5R)-5-(6-aminopurin-9-yl)-3,4-dihydroxy-oxolan-2-yl]methoxy]phosphonamidic acid

>  <TYPE>  (269) 
C-term cap

>  <CLASS>  (269) 
c_cap

>  <ANALOG>  (269) 
X

>  <MOL_WT>  (269) 
459.40000000000015

>  <LOGP>  (269) 
-1.569199999999997

>  <TPSA>  (269) 
220.96000000000004

>  <POPULARITY>  (269) 
9

>  <PROTECTED>  (269) 
FALSE

>  <SMILES>  (269) 
N[C@H](C=O)CCCCN[P@](=O)(O)OC[C@H]3O[C@H]([C@H](O)[C@@H]3O)n2c1ncnc(N)c1nc2

>  <INCHIKEY>  (269) 
JVYVZNSNEJRNON-UOYPZJKHSA-N

$$$$
Ac-Pip
     RDKit          2D

 12 12  0  0  0  0  0  0  0  0999 V2000
    2.8146   -0.7500    0.0000 C   0  0  0  0  0  0  0  0  0  0  0  0
    1.5155   -1.5000    0.0000 C   0  0  0  0  0  0  0  0  0  0  0  0
    0.2165   -0.7500    0.0000 N   0  0  0  0  0  0  0  0  0  0  0  0
   -1.0825   -1.5000    0.0000 C   0  0  0  0  0  0  0  0  0  0  0  0
   -2.3816   -0.7500    0.0000 O   0  0  0  0  0  0  0  0  0  0  0  0
   -1.0825   -3.0000    0.0000 C   0  0  0  0  0  0  0  0  0  0  0  0
    0.2165    0.7500    0.0000 C   0  0  0  0  0  0  0  0  0  0  0  0
    1.5155    1.5000    0.0000 C   0  0  0  0  0  0  0  0  0  0  0  0
    2.8146    0.7500    0.0000 C   0  0  0  0  0  0  0  0  0  0  0  0
   -1.0825    1.5000    0.0000 C   0  0  0  0  0  0  0  0  0  0  0  0
   -2.3816    0.7500    0.0000 O   0  0  0  0  0  0  0  0  0  0  0  0
   -1.0825    3.0000    0.0000 O   0  0  0  0  0  0  0  0  0  0  0  0
  1  2  1  0
  2  3  1  0
  3  4  1  0
  4  5  2  0
  4  6  1  0
  3  7  1  0
  7  8  1  0
  8  9  1  0
  7 10  1  6
 10 11  2  0
 10 12  1  0
  9  1  1  0
M  END
>  <rName>  (270) 
Ac-Pip

>  <PQ_SYMBOL>  (270) 
Ac-Pip

>  <FULL_NAME>  (270) 
1-ACETYL-2-CARBOXYPIPERIDINE

>  <IUPAC_CONDENSED>  (270) 
Ac-Pip

>  <IUPAC>  (270) 
(2S)-1-(acetyl)piperidine-2-carboxylic acid

>  <TYPE>  (270) 
N-term cap

>  <CLASS>  (270) 
n_cap

>  <ANALOG>  (270) 
X

>  <MOL_WT>  (270) 
171.19599999999997

>  <LOGP>  (270) 
0.4719999999999999

>  <TPSA>  (270) 
57.61

>  <POPULARITY>  (270) 
10.5

>  <PROTECTED>  (270) 
FALSE

>  <SMILES>  (270) 
C1CN(C(=O)C)[C@@H](CC1)C(=O)O

>  <INCHIKEY>  (270) 
JACZWLDAHFCGCC-ZETCQYMHSA-N

$$$$
Ala_3R3Cl4_5dihydroisoxazol5yl
     RDKit          2D

 11 11  0  0  0  0  0  0  0  0999 V2000
   -2.0109   -1.9308    0.0000 N   0  0  0  0  0  0  0  0  0  0  0  0
   -1.3434   -0.5875    0.0000 C   0  0  0  0  0  0  0  0  0  0  0  0
    0.1537   -0.4940    0.0000 C   0  0  0  0  0  0  0  0  0  0  0  0
    1.1093   -1.6502    0.0000 O   0  0  0  0  0  0  0  0  0  0  0  0
    2.5042   -1.0986    0.0000 N   0  0  0  0  0  0  0  0  0  0  0  0
    2.4107    0.3985    0.0000 C   0  0  0  0  0  0  0  0  0  0  0  0
    3.5669    1.3542    0.0000 Cl  0  0  0  0  0  0  0  0  0  0  0  0
    0.9580    0.7722    0.0000 C   0  0  0  0  0  0  0  0  0  0  0  0
   -2.1730    0.6622    0.0000 C   0  0  0  0  0  0  0  0  0  0  0  0
   -1.5054    2.0055    0.0000 O   0  0  0  0  0  0  0  0  0  0  0  0
   -3.6700    0.5686    0.0000 O   0  0  0  0  0  0  0  0  0  0  0  0
  2  1  1  6
  2  3  1  0
  3  4  1  0
  4  5  1  0
  5  6  2  0
  6  7  1  0
  6  8  1  0
  2  9  1  0
  9 10  2  0
  9 11  1  0
  3  8  1  6
M  END
>  <rName>  (271) 
Ala_3R3Cl4_5dihydroisoxazol5yl

>  <PQ_SYMBOL>  (271) 
Ala_3R3Cl4_5dihydroisoxazol5yl

>  <FULL_NAME>  (271) 
(2S)-AMINO[(5S)-3-CHLORO-4,5-DIHYDROISOXAZOL-5-YL]ACETIC ACID

>  <IUPAC_CONDENSED>  (271) 
Ala(3R-3-Cl-4,5-dihydroisoxazol-5-yl)

>  <IUPAC>  (271) 
(2S)-2-amino-2-((5S)-3-chloro-1-oxa-2-azacyclopent-2-en-5-yl)acetic acid

>  <TYPE>  (271) 
N-term cap

>  <CLASS>  (271) 
n_cap

>  <ANALOG>  (271) 
X

>  <MOL_WT>  (271) 
178.575

>  <LOGP>  (271) 
-0.2605

>  <TPSA>  (271) 
84.91000000000001

>  <POPULARITY>  (271) 
9.3

>  <PROTECTED>  (271) 
FALSE

>  <SMILES>  (271) 
N[C@@H]([C@H]1(ON=C(Cl)C1))C(=O)O

>  <INCHIKEY>  (271) 
QAWIHIJWNYOLBE-OKKQSCSOSA-N

$$$$
12-dimethylpropylamine
     RDKit          2D

  6  5  0  0  0  0  0  0  0  0999 V2000
    1.5000   -1.2990    0.0000 N   0  0  0  0  0  0  0  0  0  0  0  0
    0.7500    0.0000    0.0000 C   0  0  0  0  0  0  0  0  0  0  0  0
    1.5000    1.2990    0.0000 C   0  0  0  0  0  0  0  0  0  0  0  0
   -0.7500   -0.0000    0.0000 C   0  0  0  0  0  0  0  0  0  0  0  0
   -1.5000   -1.2990    0.0000 C   0  0  0  0  0  0  0  0  0  0  0  0
   -1.5000    1.2990    0.0000 C   0  0  0  0  0  0  0  0  0  0  0  0
  1  2  1  0
  2  3  1  1
  2  4  1  0
  4  5  1  0
  4  6  1  0
M  END
>  <rName>  (272) 
12-dimethylpropylamine

>  <PQ_SYMBOL>  (272) 
12-dimethylpropylamine

>  <FULL_NAME>  (272) 
1,2-DIMETHYL-PROPYLAMINE

>  <IUPAC_CONDENSED>  (272) 
1,2-dimethylpropylamine

>  <IUPAC>  (272) 
(2R)-3-methylbutan-2-amine

>  <TYPE>  (272) 
C-term cap

>  <CLASS>  (272) 
c_cap

>  <ANALOG>  (272) 
X

>  <MOL_WT>  (272) 
87.166

>  <LOGP>  (272) 
0.9895999999999998

>  <TPSA>  (272) 
26.02

>  <POPULARITY>  (272) 
17.5

>  <PROTECTED>  (272) 
FALSE

>  <SMILES>  (272) 
N[C@H](C)C(C)C

>  <INCHIKEY>  (272) 
JOZZAIIGWFLONA-RXMQYKEDSA-N

$$$$
bAla3R-CH2OHbb-diOH-NH2
     RDKit          2D

 10  9  0  0  0  0  0  0  0  0999 V2000
   -0.0629   -1.7674    0.0000 N   0  0  0  0  0  0  0  0  0  0  0  0
   -0.3412   -0.2934    0.0000 C   0  0  0  0  0  0  0  0  0  0  0  0
   -1.7568    0.2026    0.0000 C   0  0  0  0  0  0  0  0  0  0  0  0
   -3.1725    0.6986    0.0000 O   0  0  0  0  0  0  0  0  0  0  0  0
   -2.2528   -1.2130    0.0000 O   0  0  0  0  0  0  0  0  0  0  0  0
   -1.2608    1.6182    0.0000 O   0  0  0  0  0  0  0  0  0  0  0  0
    0.7961    0.6846    0.0000 C   0  0  0  0  0  0  0  0  0  0  0  0
    2.2118    0.1886    0.0000 C   0  0  0  0  0  0  0  0  0  0  0  0
    3.3491    1.1666    0.0000 N   0  0  0  0  0  0  0  0  0  0  0  0
    2.4900   -1.2854    0.0000 O   0  0  0  0  0  0  0  0  0  0  0  0
  2  1  1  6
  2  3  1  0
  3  4  1  0
  3  5  1  0
  3  6  1  0
  2  7  1  0
  7  8  1  0
  8  9  1  0
  8 10  2  0
M  END
>  <rName>  (273) 
bAla3R-CH2OHbb-diOH-NH2

>  <PQ_SYMBOL>  (273) 
bAla3R-CH2OHbb-diOH-NH2

>  <FULL_NAME>  (273) 
(3S)-3-amino-4,4,4-trihydroxybutanamide

>  <IUPAC_CONDENSED>  (273) 
bAla(3R-CH2OH,b,b-diOH)-NH2

>  <IUPAC>  (273) 
(3S)-3-amino-4,4,4-trihydroxybutanamide

>  <TYPE>  (273) 
C-term cap

>  <CLASS>  (273) 
c_cap

>  <ANALOG>  (273) 
X

>  <MOL_WT>  (273) 
150.13399999999996

>  <LOGP>  (273) 
-3.180200000000001

>  <TPSA>  (273) 
129.8

>  <POPULARITY>  (273) 
3.3

>  <PROTECTED>  (273) 
FALSE

>  <SMILES>  (273) 
N[C@H](C(O)(O)O)CC(N)=O

>  <INCHIKEY>  (273) 
USGVMGIFCLHDGU-REOHCLBHSA-N

$$$$
NcHept-G
     RDKit          2D

 12 12  0  0  0  0  0  0  0  0999 V2000
   -1.0091   -0.6736    0.0000 N   0  0  0  0  0  0  0  0  0  0  0  0
    0.4536   -0.3409    0.0000 C   0  0  0  0  0  0  0  0  0  0  0  0
    1.3879   -1.5144    0.0000 C   0  0  0  0  0  0  0  0  0  0  0  0
    2.8879   -1.5156    0.0000 C   0  0  0  0  0  0  0  0  0  0  0  0
    3.8240   -0.3435    0.0000 C   0  0  0  0  0  0  0  0  0  0  0  0
    3.4914    1.1191    0.0000 C   0  0  0  0  0  0  0  0  0  0  0  0
    2.1404    1.7710    0.0000 C   0  0  0  0  0  0  0  0  0  0  0  0
    0.7885    1.1212    0.0000 C   0  0  0  0  0  0  0  0  0  0  0  0
   -2.0285    0.4268    0.0000 C   0  0  0  0  0  0  0  0  0  0  0  0
   -3.4911    0.0942    0.0000 C   0  0  0  0  0  0  0  0  0  0  0  0
   -3.9344   -1.3389    0.0000 O   0  0  0  0  0  0  0  0  0  0  0  0
   -4.5106    1.1945    0.0000 O   0  0  0  0  0  0  0  0  0  0  0  0
  1  2  1  0
  2  3  1  0
  3  4  1  0
  4  5  1  0
  5  6  1  0
  6  7  1  0
  7  8  1  0
  1  9  1  0
  9 10  1  0
 10 11  2  0
 10 12  1  0
  8  2  1  0
M  END
>  <rName>  (274) 
NcHept-G

>  <PQ_SYMBOL>  (274) 
NcHept-G

>  <FULL_NAME>  (274) 
N-cycloheptylglycine

>  <IUPAC_CONDENSED>  (274) 
N-cHept-Gly

>  <IUPAC>  (274) 
2-(cycloheptylamino)acetic acid

>  <TYPE>  (274) 
N-term cap

>  <CLASS>  (274) 
n_cap

>  <ANALOG>  (274) 
X

>  <MOL_WT>  (274) 
171.24

>  <LOGP>  (274) 
1.3834

>  <TPSA>  (274) 
49.33

>  <POPULARITY>  (274) 
6.8

>  <PROTECTED>  (274) 
FALSE

>  <SMILES>  (274) 
N(C1(CCCCCC1))CC(=O)O

>  <INCHIKEY>  (274) 
NPLBBQAAYSJEMO-UHFFFAOYSA-N

$$$$
NcOct-G
     RDKit          2D

 13 13  0  0  0  0  0  0  0  0999 V2000
   -1.3200   -0.6942    0.0000 N   0  0  0  0  0  0  0  0  0  0  0  0
    0.1462   -0.3773    0.0000 C   0  0  0  0  0  0  0  0  0  0  0  0
    0.4145    1.0985    0.0000 C   0  0  0  0  0  0  0  0  0  0  0  0
    1.6478    1.9523    0.0000 C   0  0  0  0  0  0  0  0  0  0  0  0
    3.1236    1.6839    0.0000 C   0  0  0  0  0  0  0  0  0  0  0  0
    3.9774    0.4507    0.0000 C   0  0  0  0  0  0  0  0  0  0  0  0
    3.7091   -1.0251    0.0000 C   0  0  0  0  0  0  0  0  0  0  0  0
    2.4758   -1.8790    0.0000 C   0  0  0  0  0  0  0  0  0  0  0  0
    1.0000   -1.6106    0.0000 C   0  0  0  0  0  0  0  0  0  0  0  0
   -2.3275    0.4171    0.0000 C   0  0  0  0  0  0  0  0  0  0  0  0
   -3.7936    0.1002    0.0000 C   0  0  0  0  0  0  0  0  0  0  0  0
   -4.2523   -1.3279    0.0000 O   0  0  0  0  0  0  0  0  0  0  0  0
   -4.8011    1.2115    0.0000 O   0  0  0  0  0  0  0  0  0  0  0  0
  1  2  1  0
  2  3  1  0
  3  4  1  0
  4  5  1  0
  5  6  1  0
  6  7  1  0
  7  8  1  0
  8  9  1  0
  1 10  1  0
 10 11  1  0
 11 12  2  0
 11 13  1  0
  9  2  1  0
M  END
>  <rName>  (275) 
NcOct-G

>  <PQ_SYMBOL>  (275) 
NcOct-G

>  <FULL_NAME>  (275) 
N-cyclooctylglycine

>  <IUPAC_CONDENSED>  (275) 
N-cOct-Gly

>  <IUPAC>  (275) 
2-(cyclooctylamino)acetic acid

>  <TYPE>  (275) 
N-term cap

>  <CLASS>  (275) 
n_cap

>  <ANALOG>  (275) 
X

>  <MOL_WT>  (275) 
185.267

>  <LOGP>  (275) 
1.7735

>  <TPSA>  (275) 
49.33

>  <POPULARITY>  (275) 
6.7

>  <PROTECTED>  (275) 
FALSE

>  <SMILES>  (275) 
N(C1(CCCCCCC1))CC(=O)O

>  <INCHIKEY>  (275) 
PNKNDNFLQNMQJL-UHFFFAOYSA-N

$$$$
CysS-CH2CO-5-FAM-NH2
     RDKit          2D

 36 39  0  0  0  0  0  0  0  0999 V2000
   -8.6880    1.9287    0.0000 N   0  0  0  0  0  0  0  0  0  0  0  0
   -8.9866    0.4587    0.0000 C   0  0  0  0  0  0  0  0  0  0  0  0
  -10.4089   -0.0177    0.0000 C   0  0  0  0  0  0  0  0  0  0  0  0
  -10.7075   -1.4876    0.0000 O   0  0  0  0  0  0  0  0  0  0  0  0
  -11.5327    0.9759    0.0000 N   0  0  0  0  0  0  0  0  0  0  0  0
   -7.8629   -0.5349    0.0000 C   0  0  0  0  0  0  0  0  0  0  0  0
   -6.4405   -0.0585    0.0000 S   0  0  0  0  0  0  0  0  0  0  0  0
   -5.3168   -1.0521    0.0000 C   0  0  0  0  0  0  0  0  0  0  0  0
   -3.8944   -0.5757    0.0000 C   0  0  0  0  0  0  0  0  0  0  0  0
   -3.5958    0.8943    0.0000 O   0  0  0  0  0  0  0  0  0  0  0  0
   -2.7707   -1.5693    0.0000 N   0  0  0  0  0  0  0  0  0  0  0  0
   -1.3484   -1.0929    0.0000 C   0  0  0  0  0  0  0  0  0  0  0  0
   -1.0498    0.3771    0.0000 C   0  0  0  0  0  0  0  0  0  0  0  0
    0.3726    0.8535    0.0000 C   0  0  0  0  0  0  0  0  0  0  0  0
    1.4963   -0.1401    0.0000 C   0  0  0  0  0  0  0  0  0  0  0  0
    1.1977   -1.6101    0.0000 C   0  0  0  0  0  0  0  0  0  0  0  0
   -0.2246   -2.0865    0.0000 C   0  0  0  0  0  0  0  0  0  0  0  0
    2.3214   -2.6037    0.0000 C   0  0  0  0  0  0  0  0  0  0  0  0
    3.1161   -2.5409    0.0000 O   0  0  0  0  0  0  0  0  0  0  0  0
    2.0228   -4.0737    0.0000 O   0  0  0  0  0  0  0  0  0  0  0  0
    2.9187    0.3363    0.0000 C   0  0  0  0  0  0  0  0  0  0  0  0
    3.2173    1.8063    0.0000 C   0  0  0  0  0  0  0  0  0  0  0  0
    2.0935    2.7998    0.0000 C   0  0  0  0  0  0  0  0  0  0  0  0
    2.3921    4.2698    0.0000 C   0  0  0  0  0  0  0  0  0  0  0  0
    3.8145    4.7462    0.0000 C   0  0  0  0  0  0  0  0  0  0  0  0
    4.9382    3.7526    0.0000 C   0  0  0  0  0  0  0  0  0  0  0  0
    4.6396    2.2826    0.0000 C   0  0  0  0  0  0  0  0  0  0  0  0
    5.7633    1.2890    0.0000 O   0  0  0  0  0  0  0  0  0  0  0  0
    5.4647   -0.1809    0.0000 C   0  0  0  0  0  0  0  0  0  0  0  0
    6.5885   -1.1745    0.0000 C   0  0  0  0  0  0  0  0  0  0  0  0
    6.2899   -2.6445    0.0000 C   0  0  0  0  0  0  0  0  0  0  0  0
    7.4136   -3.6381    0.0000 O   0  0  0  0  0  0  0  0  0  0  0  0
    4.8675   -3.1209    0.0000 C   0  0  0  0  0  0  0  0  0  0  0  0
    3.7438   -2.1273    0.0000 C   0  0  0  0  0  0  0  0  0  0  0  0
    4.0424   -0.6573    0.0000 C   0  0  0  0  0  0  0  0  0  0  0  0
    4.1131    6.2162    0.0000 O   0  0  0  0  0  0  0  0  0  0  0  0
  2  1  1  1
  2  3  1  0
  3  4  2  0
  3  5  1  0
  2  6  1  0
  6  7  1  0
  7  8  1  0
  8  9  1  0
  9 10  2  0
  9 11  1  0
 11 12  1  0
 12 13  1  0
 13 14  2  0
 14 15  1  0
 15 16  2  0
 16 17  1  0
 16 18  1  0
 18 19  2  0
 18 20  1  0
 15 21  1  0
 21 22  1  0
 22 23  1  0
 23 24  2  0
 24 25  1  0
 25 26  2  0
 26 27  1  0
 27 28  1  0
 28 29  1  0
 29 30  1  0
 30 31  2  0
 31 32  1  0
 31 33  1  0
 33 34  2  0
 34 35  1  0
 25 36  1  0
 27 22  2  0
 35 21  1  0
 35 29  2  0
 17 12  2  0
M  END
>  <rName>  (276) 
CysS-CH2CO-5-FAM-NH2

>  <PQ_SYMBOL>  (276) 
CysS-CH2CO-5-FAM-NH2

>  <FULL_NAME>  (276) 
5-[2-(2-AMINO-2-CARBAMOYL-ETHYLSULFANYL)-ACETYLAMINO]-2-(3,6-DIHYDROXY-9,9A-DIHYDRO-3H-XANTHEN-9-YL)-BENZOIC ACID

>  <IUPAC_CONDENSED>  (276) 
Cys(S-CH2CO-5-FAM)-NH2

>  <IUPAC>  (276) 
5-((((2R)-2,3-diamino-3-oxopropyl)sulfanyl)methylcarbonylamino)-2-(6,12-dihydroxy-9-oxatricyclo[8.4.0.0^{3,8}]tetradeca-1(14),3,5,7,10,12-hexaen-2-yl)benzoic acid

>  <TYPE>  (276) 
C-term cap

>  <CLASS>  (276) 
c_cap

>  <ANALOG>  (276) 
X

>  <MOL_WT>  (276) 
509.54000000000025

>  <LOGP>  (276) 
2.5662000000000007

>  <TPSA>  (276) 
185.19999999999996

>  <POPULARITY>  (276) 
6.6

>  <PROTECTED>  (276) 
FALSE

>  <SMILES>  (276) 
N[C@H](C(=O)N)CSCC(=O)Nc4ccc(c(c4)C(=O)O)C2c1ccc(cc1Oc3(cc(O)ccc23))O

>  <INCHIKEY>  (276) 
YQXANHSECNNVJK-IBGZPJMESA-N

$$$$
NMe2Lys_Me2
     RDKit          2D

 14 13  0  0  0  0  0  0  0  0999 V2000
   -5.6928    0.8361    0.0000 C   0  0  0  0  0  0  0  0  0  0  0  0
   -4.4994   -0.0727    0.0000 N   0  0  0  0  0  0  0  0  0  0  0  0
   -4.6897   -1.5606    0.0000 C   0  0  0  0  0  0  0  0  0  0  0  0
   -3.1157    0.5065    0.0000 C   0  0  0  0  0  0  0  0  0  0  0  0
   -1.9223   -0.4023    0.0000 C   0  0  0  0  0  0  0  0  0  0  0  0
   -0.5386    0.1769    0.0000 C   0  0  0  0  0  0  0  0  0  0  0  0
    0.6548   -0.7318    0.0000 C   0  0  0  0  0  0  0  0  0  0  0  0
    2.0384   -0.1527    0.0000 C   0  0  0  0  0  0  0  0  0  0  0  0
    2.2287    1.3352    0.0000 N   0  0  0  0  0  0  0  0  0  0  0  0
    3.6124    1.9144    0.0000 C   0  0  0  0  0  0  0  0  0  0  0  0
    1.0353    2.2439    0.0000 C   0  0  0  0  0  0  0  0  0  0  0  0
    3.2318   -1.0614    0.0000 C   0  0  0  0  0  0  0  0  0  0  0  0
    3.0416   -2.5493    0.0000 O   0  0  0  0  0  0  0  0  0  0  0  0
    4.6155   -0.4823    0.0000 O   0  0  0  0  0  0  0  0  0  0  0  0
  1  2  1  0
  2  3  1  0
  2  4  1  0
  4  5  1  0
  5  6  1  0
  6  7  1  0
  8  7  1  6
  8  9  1  0
  9 10  1  0
  9 11  1  0
  8 12  1  0
 12 13  2  0
 12 14  1  0
M  END
>  <rName>  (277) 
NMe2Lys_Me2

>  <PQ_SYMBOL>  (277) 
NMe2Lys_Me2

>  <FULL_NAME>  (277) 
N~2~,N~2~,N~6~,N~6~-tetramethyl-L-lysine

>  <IUPAC_CONDENSED>  (277) 
N(Me2)Lys(Me2)

>  <IUPAC>  (277) 
(2S)-2,6-bis(dimethylamino)hexanoic acid

>  <TYPE>  (277) 
N-term cap

>  <CLASS>  (277) 
n_cap

>  <ANALOG>  (277) 
X

>  <MOL_WT>  (277) 
202.298

>  <LOGP>  (277) 
0.7331000000000003

>  <TPSA>  (277) 
43.78

>  <POPULARITY>  (277) 
10.6

>  <PROTECTED>  (277) 
FALSE

>  <SMILES>  (277) 
CN(C)CCCC[C@H](N(C)C)C(=O)O

>  <INCHIKEY>  (277) 
HNWHSCYWLXEVJP-VIFPVBQESA-N

$$$$
Pro_2E2Me4carboxy4oxobutenoyl
     RDKit          2D

 16 16  0  0  0  0  0  0  0  0999 V2000
    5.2785   -0.5765    0.0000 O   0  0  0  0  0  0  0  0  0  0  0  0
    4.0456    0.2779    0.0000 C   0  0  0  0  0  0  0  0  0  0  0  0
    4.1691    1.7728    0.0000 O   0  0  0  0  0  0  0  0  0  0  0  0
    2.6892   -0.3626    0.0000 C   0  0  0  0  0  0  0  0  0  0  0  0
    2.5658   -1.8576    0.0000 O   0  0  0  0  0  0  0  0  0  0  0  0
    1.4564    0.4917    0.0000 C   0  0  0  0  0  0  0  0  0  0  0  0
    0.1000   -0.1488    0.0000 C   0  0  0  0  0  0  0  0  0  0  0  0
   -0.0235   -1.6437    0.0000 C   0  0  0  0  0  0  0  0  0  0  0  0
   -1.1329    0.7056    0.0000 N   0  0  0  0  0  0  0  0  0  0  0  0
   -1.1664    2.2052    0.0000 C   0  0  0  0  0  0  0  0  0  0  0  0
   -2.6029    2.6368    0.0000 C   0  0  0  0  0  0  0  0  0  0  0  0
   -3.4573    1.4039    0.0000 C   0  0  0  0  0  0  0  0  0  0  0  0
   -2.5488    0.2104    0.0000 C   0  0  0  0  0  0  0  0  0  0  0  0
   -2.9804   -1.2262    0.0000 C   0  0  0  0  0  0  0  0  0  0  0  0
   -1.9521   -2.3183    0.0000 O   0  0  0  0  0  0  0  0  0  0  0  0
   -4.4403   -1.5707    0.0000 O   0  0  0  0  0  0  0  0  0  0  0  0
  1  2  1  0
  2  3  2  0
  2  4  1  0
  4  5  2  0
  4  6  1  0
  6  7  2  0
  7  8  1  0
  7  9  1  0
  9 10  1  0
 10 11  1  0
 11 12  1  0
 12 13  1  0
 13 14  1  6
 14 15  2  0
 14 16  1  0
 13  9  1  0
M  END
>  <rName>  (278) 
Pro_2E2Me4carboxy4oxobutenoyl

>  <PQ_SYMBOL>  (278) 
Pro_2E2Me4carboxy4oxobutenoyl

>  <FULL_NAME>  (278) 
1-[(2E)-4-carboxy-4-oxobut-2-en-2-yl]-L-proline

>  <IUPAC_CONDENSED>  (278) 
Pro(2E-2Me-4-carboxy-4-oxobutenoyl)

>  <IUPAC>  (278) 
(3E)-4-((2S)-2-((hydroxy)carbonyl)pyrrolidin-1-yl)-2-oxopent-3-enoic acid

>  <TYPE>  (278) 
N-term cap

>  <CLASS>  (278) 
n_cap

>  <ANALOG>  (278) 
X

>  <MOL_WT>  (278) 
227.21599999999995

>  <LOGP>  (278) 
0.09289999999999993

>  <TPSA>  (278) 
94.91000000000001

>  <POPULARITY>  (278) 
3.3

>  <PROTECTED>  (278) 
FALSE

>  <SMILES>  (278) 
OC(=O)C(=O)/C=C(\C)N1CCC[C@H]1C(=O)O

>  <INCHIKEY>  (278) 
BJLIRDLXPUFPLT-XPPMVYLVSA-N

$$$$
Gln-ol
     RDKit          2D

  9  8  0  0  0  0  0  0  0  0999 V2000
    1.7016   -1.5966    0.0000 N   0  0  0  0  0  0  0  0  0  0  0  0
    1.4770   -0.1135    0.0000 C   0  0  0  0  0  0  0  0  0  0  0  0
    2.6491    0.8225    0.0000 C   0  0  0  0  0  0  0  0  0  0  0  0
    4.0458    0.2755    0.0000 O   0  0  0  0  0  0  0  0  0  0  0  0
    0.0803    0.4336    0.0000 C   0  0  0  0  0  0  0  0  0  0  0  0
   -1.0918   -0.5025    0.0000 C   0  0  0  0  0  0  0  0  0  0  0  0
   -2.4885    0.0446    0.0000 C   0  0  0  0  0  0  0  0  0  0  0  0
   -3.6606   -0.8914    0.0000 N   0  0  0  0  0  0  0  0  0  0  0  0
   -2.7130    1.5277    0.0000 O   0  0  0  0  0  0  0  0  0  0  0  0
  2  1  1  1
  2  3  1  0
  3  4  1  0
  2  5  1  0
  5  6  1  0
  6  7  1  0
  7  8  1  0
  7  9  2  0
M  END
>  <rName>  (279) 
Gln-ol

>  <PQ_SYMBOL>  (279) 
Gln-ol

>  <FULL_NAME>  (279) 
(4S)-4-amino-5-hydroxypentanamide

>  <IUPAC_CONDENSED>  (279) 
Gln-ol

>  <IUPAC>  (279) 
(4S)-4-amino-5-hydroxypentanamide

>  <TYPE>  (279) 
C-term cap

>  <CLASS>  (279) 
c_cap

>  <ANALOG>  (279) 
X

>  <MOL_WT>  (279) 
132.163

>  <LOGP>  (279) 
-1.4285

>  <TPSA>  (279) 
89.34

>  <POPULARITY>  (279) 
19.5

>  <PROTECTED>  (279) 
FALSE

>  <SMILES>  (279) 
N[C@H](CO)CCC(N)=O

>  <INCHIKEY>  (279) 
FQLOSLKSJZSARD-BYPYZUCNSA-N

$$$$
1S2S-aminohydroxyhexanesulfonicacid
     RDKit          2D

 12 11  0  0  0  0  0  0  0  0999 V2000
   -0.3548   -2.4333    0.0000 N   0  0  0  0  0  0  0  0  0  0  0  0
    0.0557   -0.9906    0.0000 C   0  0  0  0  0  0  0  0  0  0  0  0
    1.5105   -0.6248    0.0000 C   0  0  0  0  0  0  0  0  0  0  0  0
    2.5546   -1.7017    0.0000 O   0  0  0  0  0  0  0  0  0  0  0  0
    1.9210    0.8179    0.0000 S   0  0  0  0  0  0  0  0  0  0  0  0
    3.3638    0.4073    0.0000 O   0  0  0  0  0  0  0  0  0  0  0  0
    0.4783    1.2285    0.0000 O   0  0  0  0  0  0  0  0  0  0  0  0
    2.3316    2.2606    0.0000 O   0  0  0  0  0  0  0  0  0  0  0  0
   -0.9884    0.0863    0.0000 C   0  0  0  0  0  0  0  0  0  0  0  0
   -2.4431   -0.2794    0.0000 C   0  0  0  0  0  0  0  0  0  0  0  0
   -3.4872    0.7975    0.0000 C   0  0  0  0  0  0  0  0  0  0  0  0
   -4.9420    0.4317    0.0000 C   0  0  0  0  0  0  0  0  0  0  0  0
  2  1  1  1
  2  3  1  0
  3  4  1  1
  3  5  1  0
  5  6  2  0
  5  7  2  0
  5  8  1  0
  2  9  1  0
  9 10  1  0
 10 11  1  0
 11 12  1  0
M  END
>  <rName>  (280) 
1S2S-aminohydroxyhexanesulfonicacid

>  <PQ_SYMBOL>  (280) 
1S2S-aminohydroxyhexanesulfonicacid

>  <FULL_NAME>  (280) 
(1S,2S)-2-azanyl-1-oxidanyl-hexane-1-sulfonic acid

>  <IUPAC_CONDENSED>  (280) 
1S,2S-aminohydroxyhexanesulfonic acid

>  <IUPAC>  (280) 
(1R,2S)-2-amino-1-hydroxyhexane-1-sulfonic acid

>  <TYPE>  (280) 
C-term cap

>  <CLASS>  (280) 
c_cap

>  <ANALOG>  (280) 
X

>  <MOL_WT>  (280) 
197.25599999999997

>  <LOGP>  (280) 
-0.2899000000000005

>  <TPSA>  (280) 
100.62

>  <POPULARITY>  (280) 
2.3

>  <PROTECTED>  (280) 
FALSE

>  <SMILES>  (280) 
N[C@H]([C@H](O)S(=O)(=O)O)CCCC

>  <INCHIKEY>  (280) 
VTAATEODKMXWSG-NTSWFWBYSA-N

$$$$
PLP-Ala
     RDKit          2D

 21 21  0  0  0  0  0  0  0  0999 V2000
   -2.7593   -2.2692    0.0000 O   0  0  0  0  0  0  0  0  0  0  0  0
   -4.0508   -1.5064    0.0000 P   0  0  0  0  0  0  0  0  0  0  0  0
   -5.3424   -0.7436    0.0000 O   0  0  0  0  0  0  0  0  0  0  0  0
   -4.8137   -2.7980    0.0000 O   0  0  0  0  0  0  0  0  0  0  0  0
   -3.2880   -0.2149    0.0000 O   0  0  0  0  0  0  0  0  0  0  0  0
   -1.7881   -0.2297    0.0000 C   0  0  0  0  0  0  0  0  0  0  0  0
   -1.0252    1.0618    0.0000 C   0  0  0  0  0  0  0  0  0  0  0  0
   -1.7623    2.3682    0.0000 C   0  0  0  0  0  0  0  0  0  0  0  0
   -0.9995    3.6598    0.0000 N   0  0  0  0  0  0  0  0  0  0  0  0
    0.5004    3.6449    0.0000 C   0  0  0  0  0  0  0  0  0  0  0  0
    1.2633    4.9364    0.0000 C   0  0  0  0  0  0  0  0  0  0  0  0
    1.2375    2.3385    0.0000 C   0  0  0  0  0  0  0  0  0  0  0  0
    2.7374    2.3236    0.0000 O   0  0  0  0  0  0  0  0  0  0  0  0
    0.4747    1.0470    0.0000 C   0  0  0  0  0  0  0  0  0  0  0  0
    1.2118   -0.2595    0.0000 C   0  0  0  0  0  0  0  0  0  0  0  0
    2.7117   -0.2743    0.0000 N   0  0  0  0  0  0  0  0  0  0  0  0
    3.4488   -1.5807    0.0000 C   0  0  0  0  0  0  0  0  0  0  0  0
    4.9487   -1.5956    0.0000 C   0  0  0  0  0  0  0  0  0  0  0  0
    2.6860   -2.8723    0.0000 C   0  0  0  0  0  0  0  0  0  0  0  0
    1.1860   -2.8574    0.0000 O   0  0  0  0  0  0  0  0  0  0  0  0
    3.4231   -4.1787    0.0000 O   0  0  0  0  0  0  0  0  0  0  0  0
  1  2  1  0
  2  3  2  0
  2  4  1  0
  2  5  1  0
  5  6  1  0
  6  7  1  0
  7  8  1  0
  8  9  2  0
  9 10  1  0
 10 11  1  0
 10 12  2  0
 12 13  1  0
 12 14  1  0
 14 15  1  0
 15 16  2  0
 16 17  1  0
 17 18  1  1
 17 19  1  0
 19 20  2  0
 19 21  1  0
 14  7  2  0
M  END
>  <rName>  (281) 
PLP-Ala

>  <PQ_SYMBOL>  (281) 
PLP-Ala

>  <FULL_NAME>  (281) 
(E)-N-({3-hydroxy-2-methyl-5-[(phosphonooxy)methyl]pyridin-4-yl}methylidene)-L-alanine

>  <IUPAC_CONDENSED>  (281) 
PLP-Ala

>  <IUPAC>  (281) 
(5-hydroxy-4-((1E)-(((2S)-1-hydroxy-1-oxopropan-2-yl)imino)methyl)-6-methylpyridin-3-yl)methyl dihydrogen phosphate

>  <TYPE>  (281) 
N-term cap

>  <CLASS>  (281) 
n_cap

>  <ANALOG>  (281) 
X

>  <MOL_WT>  (281) 
318.2220000000001

>  <LOGP>  (281) 
0.5969199999999999

>  <TPSA>  (281) 
149.54

>  <POPULARITY>  (281) 
8.6

>  <PROTECTED>  (281) 
FALSE

>  <SMILES>  (281) 
OP(=O)(O)OCc1cnc(C)c(O)c1/C=N/[C@@H](C)C(=O)O

>  <INCHIKEY>  (281) 
UPOKXKNJCNHZTH-ASMSWWRESA-N

$$$$
D-aCF3Gaba3S-OH-OMe
     RDKit          2D

 13 12  0  0  0  0  0  0  0  0999 V2000
    1.4780    2.1398    0.0000 N   0  0  0  0  0  0  0  0  0  0  0  0
    1.4233    0.6408    0.0000 C   0  0  0  0  0  0  0  0  0  0  0  0
    2.6941   -0.1560    0.0000 C   0  0  0  0  0  0  0  0  0  0  0  0
    3.9649   -0.9529    0.0000 F   0  0  0  0  0  0  0  0  0  0  0  0
    3.4910    1.1148    0.0000 F   0  0  0  0  0  0  0  0  0  0  0  0
    1.8972   -1.4269    0.0000 F   0  0  0  0  0  0  0  0  0  0  0  0
    0.0978   -0.0613    0.0000 C   0  0  0  0  0  0  0  0  0  0  0  0
    0.0431   -1.5603    0.0000 O   0  0  0  0  0  0  0  0  0  0  0  0
   -1.1731    0.7356    0.0000 C   0  0  0  0  0  0  0  0  0  0  0  0
   -2.4986    0.0334    0.0000 C   0  0  0  0  0  0  0  0  0  0  0  0
   -2.5533   -1.4656    0.0000 O   0  0  0  0  0  0  0  0  0  0  0  0
   -3.7694    0.8303    0.0000 O   0  0  0  0  0  0  0  0  0  0  0  0
   -5.0949    0.1282    0.0000 C   0  0  0  0  0  0  0  0  0  0  0  0
  2  1  1  1
  2  3  1  0
  3  4  1  0
  3  5  1  0
  3  6  1  0
  2  7  1  0
  7  8  1  1
  7  9  1  0
  9 10  1  0
 10 11  2  0
 10 12  1  0
 12 13  1  0
M  END
>  <rName>  (282) 
D-aCF3Gaba3S-OH-OMe

>  <PQ_SYMBOL>  (282) 
D-aCF3Gaba3S-OH-OMe

>  <FULL_NAME>  (282) 
methyl 4-amino-2,4,5-trideoxy-5,5,5-trifluoro-L-threo-pentonate

>  <IUPAC_CONDENSED>  (282) 
D-aCF3Gaba(3S-OH)-OMe

>  <IUPAC>  (282) 
methyl (3S,4R)-4-amino-5,5,5-trifluoro-3-hydroxypentanoate

>  <TYPE>  (282) 
C-term cap

>  <CLASS>  (282) 
c_cap

>  <ANALOG>  (282) 
X

>  <MOL_WT>  (282) 
201.14399999999998

>  <LOGP>  (282) 
-0.19999999999999996

>  <TPSA>  (282) 
72.55

>  <POPULARITY>  (282) 
0.3

>  <PROTECTED>  (282) 
FALSE

>  <SMILES>  (282) 
N[C@@H](C(F)(F)F)[C@@H](O)CC(=O)OC

>  <INCHIKEY>  (282) 
ZVARBPCHAKEWAX-WVZVXSGGSA-N

$$$$
LysAc-AMC
     RDKit          2D

 25 26  0  0  0  0  0  0  0  0999 V2000
   -2.0262   -2.1853    0.0000 N   0  0  0  0  0  0  0  0  0  0  0  0
   -1.8570   -0.6949    0.0000 C   0  0  0  0  0  0  0  0  0  0  0  0
   -3.0631    0.1969    0.0000 C   0  0  0  0  0  0  0  0  0  0  0  0
   -4.4384   -0.4018    0.0000 C   0  0  0  0  0  0  0  0  0  0  0  0
   -5.6446    0.4900    0.0000 C   0  0  0  0  0  0  0  0  0  0  0  0
   -7.0199   -0.1086    0.0000 C   0  0  0  0  0  0  0  0  0  0  0  0
   -8.2260    0.7832    0.0000 N   0  0  0  0  0  0  0  0  0  0  0  0
   -9.6014    0.1846    0.0000 C   0  0  0  0  0  0  0  0  0  0  0  0
   -9.7707   -1.3059    0.0000 O   0  0  0  0  0  0  0  0  0  0  0  0
  -10.8075    1.0764    0.0000 C   0  0  0  0  0  0  0  0  0  0  0  0
   -0.4816   -0.0963    0.0000 C   0  0  0  0  0  0  0  0  0  0  0  0
   -0.3123    1.3941    0.0000 O   0  0  0  0  0  0  0  0  0  0  0  0
    0.7245   -0.9881    0.0000 N   0  0  0  0  0  0  0  0  0  0  0  0
    2.0999   -0.3894    0.0000 C   0  0  0  0  0  0  0  0  0  0  0  0
    2.2691    1.1010    0.0000 C   0  0  0  0  0  0  0  0  0  0  0  0
    3.6445    1.6996    0.0000 C   0  0  0  0  0  0  0  0  0  0  0  0
    4.8506    0.8078    0.0000 C   0  0  0  0  0  0  0  0  0  0  0  0
    6.2260    1.4065    0.0000 C   0  0  0  0  0  0  0  0  0  0  0  0
    6.3953    2.8969    0.0000 C   0  0  0  0  0  0  0  0  0  0  0  0
    7.4321    0.5147    0.0000 C   0  0  0  0  0  0  0  0  0  0  0  0
    7.2629   -0.9757    0.0000 C   0  0  0  0  0  0  0  0  0  0  0  0
    8.4690   -1.8675    0.0000 O   0  0  0  0  0  0  0  0  0  0  0  0
    5.8875   -1.5744    0.0000 O   0  0  0  0  0  0  0  0  0  0  0  0
    4.6814   -0.6826    0.0000 C   0  0  0  0  0  0  0  0  0  0  0  0
    3.3060   -1.2812    0.0000 C   0  0  0  0  0  0  0  0  0  0  0  0
  2  1  1  1
  2  3  1  0
  3  4  1  0
  4  5  1  0
  5  6  1  0
  6  7  1  0
  7  8  1  0
  8  9  2  0
  8 10  1  0
  2 11  1  0
 11 12  2  0
 11 13  1  0
 13 14  1  0
 14 15  1  0
 15 16  2  0
 16 17  1  0
 17 18  1  0
 18 19  1  0
 18 20  2  0
 20 21  1  0
 21 22  2  0
 21 23  1  0
 23 24  1  0
 24 25  1  0
 24 17  2  0
 25 14  2  0
M  END
>  <rName>  (283) 
LysAc-AMC

>  <PQ_SYMBOL>  (283) 
LysAc-AMC

>  <FULL_NAME>  (283) 
N~6~-acetyl-N-(4-methyl-2-oxo-2H-chromen-7-yl)-L-lysinamide

>  <IUPAC_CONDENSED>  (283) 
Lys(Ac)-AMC

>  <IUPAC>  (283) 
(2S)-2-amino-N-(5-methyl-3-oxo-2-oxabicyclo[4.4.0]deca-1(10),4,6,8-tetraen-9-yl)-6-methylcarbonylaminohexanamide

>  <TYPE>  (283) 
C-term cap

>  <CLASS>  (283) 
c_cap

>  <ANALOG>  (283) 
X

>  <MOL_WT>  (283) 
345.3990000000001

>  <LOGP>  (283) 
1.6736199999999992

>  <TPSA>  (283) 
114.42999999999999

>  <POPULARITY>  (283) 
11.5

>  <PROTECTED>  (283) 
FALSE

>  <SMILES>  (283) 
N[C@@H](CCCCNC(=O)C)C(=O)Nc2ccc1c(C)cc(=O)oc1c2

>  <INCHIKEY>  (283) 
CDFJPCDMYIJWOC-HNNXBMFYSA-N

$$$$
1-phenyl-2-aminopropane
     RDKit          2D

 10 10  0  0  0  0  0  0  0  0999 V2000
   -2.0977    1.4730    0.0000 N   0  0  0  0  0  0  0  0  0  0  0  0
   -2.3812    0.0000    0.0000 C   0  0  0  0  0  0  0  0  0  0  0  0
   -3.7985   -0.4910    0.0000 C   0  0  0  0  0  0  0  0  0  0  0  0
   -1.2473   -0.9820    0.0000 C   0  0  0  0  0  0  0  0  0  0  0  0
    0.1701   -0.4910    0.0000 C   0  0  0  0  0  0  0  0  0  0  0  0
    0.4536    0.9820    0.0000 C   0  0  0  0  0  0  0  0  0  0  0  0
    1.8709    1.4730    0.0000 C   0  0  0  0  0  0  0  0  0  0  0  0
    3.0048    0.4910    0.0000 C   0  0  0  0  0  0  0  0  0  0  0  0
    2.7213   -0.9820    0.0000 C   0  0  0  0  0  0  0  0  0  0  0  0
    1.3040   -1.4730    0.0000 C   0  0  0  0  0  0  0  0  0  0  0  0
  1  2  1  0
  2  3  1  1
  2  4  1  0
  4  5  1  0
  5  6  2  0
  6  7  1  0
  7  8  2  0
  8  9  1  0
  9 10  2  0
 10  5  1  0
M  END
>  <rName>  (284) 
1-phenyl-2-aminopropane

>  <PQ_SYMBOL>  (284) 
1-phenyl-2-aminopropane

>  <FULL_NAME>  (284) 
1-PHENYL-2-AMINOPROPANE

>  <IUPAC_CONDENSED>  (284) 
1-phenyl-2-aminopropane

>  <IUPAC>  (284) 
(2R)-1-phenylpropan-2-amine

>  <TYPE>  (284) 
C-term cap

>  <CLASS>  (284) 
c_cap

>  <ANALOG>  (284) 
X

>  <MOL_WT>  (284) 
135.20999999999998

>  <LOGP>  (284) 
1.5762999999999998

>  <TPSA>  (284) 
26.02

>  <POPULARITY>  (284) 
21.2

>  <PROTECTED>  (284) 
FALSE

>  <SMILES>  (284) 
N[C@H](C)Cc1ccccc1

>  <INCHIKEY>  (284) 
KWTSXDURSIMDCE-MRVPVSSYSA-N

$$$$
Lys_3SOH_Amidino
     RDKit          2D

 15 14  0  0  0  0  0  0  0  0999 V2000
   -3.2785    2.0203    0.0000 N   0  0  0  0  0  0  0  0  0  0  0  0
   -3.2877    0.5203    0.0000 C   0  0  0  0  0  0  0  0  0  0  0  0
   -1.9934   -0.2377    0.0000 C   0  0  0  0  0  0  0  0  0  0  0  0
   -2.0026   -1.7377    0.0000 O   0  0  0  0  0  0  0  0  0  0  0  0
   -0.6897    0.5043    0.0000 C   0  0  0  0  0  0  0  0  0  0  0  0
    0.6047   -0.2537    0.0000 C   0  0  0  0  0  0  0  0  0  0  0  0
    1.9083    0.4882    0.0000 C   0  0  0  0  0  0  0  0  0  0  0  0
    3.2027   -0.2698    0.0000 N   0  0  0  0  0  0  0  0  0  0  0  0
    4.5063    0.4722    0.0000 C   0  0  0  0  0  0  0  0  0  0  0  0
    4.5156    1.9721    0.0000 N   0  0  0  0  0  0  0  0  0  0  0  0
    5.8007   -0.2858    0.0000 N   0  0  0  0  0  0  0  0  0  0  0  0
    5.7915   -1.7858    0.0000 H   0  0  0  0  0  0  0  0  0  0  0  0
   -4.5914   -0.2216    0.0000 C   0  0  0  0  0  0  0  0  0  0  0  0
   -4.6007   -1.7216    0.0000 O   0  0  0  0  0  0  0  0  0  0  0  0
   -5.8858    0.5364    0.0000 O   0  0  0  0  0  0  0  0  0  0  0  0
  2  1  1  1
  2  3  1  0
  3  4  1  6
  3  5  1  0
  5  6  1  0
  6  7  1  0
  7  8  1  0
  8  9  1  0
  9 10  1  0
  9 11  2  0
 11 12  1  0
  2 13  1  0
 13 14  2  0
 13 15  1  0
M  END
>  <rName>  (285) 
Lys_3SOH_Amidino

>  <PQ_SYMBOL>  (285) 
Lys_3SOH_Amidino

>  <FULL_NAME>  (285) 
(3S)-N~6~-carbamimidoyl-3-hydroxy-L-lysine

>  <IUPAC_CONDENSED>  (285) 
Lys(3S-OH,Amidino)

>  <IUPAC>  (285) 
(2S,3S)-2-amino-6-(((1Z)-(amino)(imino)methyl)amino)-3-hydroxyhexanoic acid

>  <TYPE>  (285) 
N-term cap

>  <CLASS>  (285) 
n_cap

>  <ANALOG>  (285) 
X

>  <MOL_WT>  (285) 
204.23000000000002

>  <LOGP>  (285) 
-1.9775299999999998

>  <TPSA>  (285) 
145.45

>  <POPULARITY>  (285) 
3.1

>  <PROTECTED>  (285) 
FALSE

>  <SMILES>  (285) 
N[C@@H]([C@@H](O)CCCN/C(/N)=N\[H])C(=O)O

>  <INCHIKEY>  (285) 
ZMNNJGSTNCXCMN-WHFBIAKZSA-N

$$$$
Gly-SH
     RDKit          2D

  5  4  0  0  0  0  0  0  0  0999 V2000
   -2.0785    0.0000    0.0000 N   0  0  0  0  0  0  0  0  0  0  0  0
   -0.7794   -0.7500    0.0000 C   0  0  0  0  0  0  0  0  0  0  0  0
    0.5196   -0.0000    0.0000 C   0  0  0  0  0  0  0  0  0  0  0  0
    1.8187   -0.7500    0.0000 O   0  0  0  0  0  0  0  0  0  0  0  0
    0.5196    1.5000    0.0000 S   0  0  0  0  0  0  0  0  0  0  0  0
  1  2  1  0
  2  3  1  0
  3  4  2  0
  3  5  1  0
M  END
>  <rName>  (286) 
Gly-SH

>  <PQ_SYMBOL>  (286) 
Gly-SH

>  <FULL_NAME>  (286) 
THIOGLYCIN

>  <IUPAC_CONDENSED>  (286) 
Gly-SH

>  <IUPAC>  (286) 
2-amino-1-sulfanylethan-1-one

>  <TYPE>  (286) 
C-term cap

>  <CLASS>  (286) 
c_cap

>  <ANALOG>  (286) 
X

>  <MOL_WT>  (286) 
91.13499999999999

>  <LOGP>  (286) 
-0.5985

>  <TPSA>  (286) 
43.09

>  <POPULARITY>  (286) 
23.7

>  <PROTECTED>  (286) 
FALSE

>  <SMILES>  (286) 
NCC(=O)S

>  <INCHIKEY>  (286) 
CYFJIBWZIQDUSZ-UHFFFAOYSA-N

$$$$
deamino-Phe_OH
     RDKit          2D

 12 12  0  0  0  0  0  0  0  0999 V2000
   -3.7882   -0.3665    0.0000 C   0  0  0  0  0  0  0  0  0  0  0  0
   -3.4088    1.0848    0.0000 C   0  0  0  0  0  0  0  0  0  0  0  0
   -1.9624    1.4819    0.0000 C   0  0  0  0  0  0  0  0  0  0  0  0
   -0.8952    0.4278    0.0000 C   0  0  0  0  0  0  0  0  0  0  0  0
   -1.2745   -1.0235    0.0000 C   0  0  0  0  0  0  0  0  0  0  0  0
   -2.7210   -1.4206    0.0000 C   0  0  0  0  0  0  0  0  0  0  0  0
    0.5513    0.8249    0.0000 C   0  0  0  0  0  0  0  0  0  0  0  0
    1.6184   -0.2292    0.0000 C   0  0  0  0  0  0  0  0  0  0  0  0
    1.2391   -1.6805    0.0000 O   0  0  0  0  0  0  0  0  0  0  0  0
    3.0649    0.1679    0.0000 C   0  0  0  0  0  0  0  0  0  0  0  0
    3.4442    1.6191    0.0000 O   0  0  0  0  0  0  0  0  0  0  0  0
    4.1321   -0.8862    0.0000 O   0  0  0  0  0  0  0  0  0  0  0  0
  1  2  2  0
  2  3  1  0
  3  4  2  0
  4  5  1  0
  5  6  2  0
  4  7  1  0
  7  8  1  0
  8  9  1  1
  8 10  1  0
 10 11  2  0
 10 12  1  0
  6  1  1  0
M  END
>  <rName>  (287) 
deamino-Phe_OH

>  <PQ_SYMBOL>  (287) 
deamino-Phe_OH

>  <FULL_NAME>  (287) 
ALPHA-HYDROXY-BETA-PHENYL-PROPIONIC ACID

>  <IUPAC_CONDENSED>  (287) 
deamino-Phe(OH)

>  <IUPAC>  (287) 
(2S)-2-hydroxy-3-phenylpropanoic acid

>  <TYPE>  (287) 
N-term cap

>  <CLASS>  (287) 
n_cap

>  <ANALOG>  (287) 
X

>  <MOL_WT>  (287) 
166.17599999999996

>  <LOGP>  (287) 
0.6745999999999999

>  <TPSA>  (287) 
57.53

>  <POPULARITY>  (287) 
18.7

>  <PROTECTED>  (287) 
FALSE

>  <SMILES>  (287) 
c1ccc(cc1)C[C@H](O)C(=O)O

>  <INCHIKEY>  (287) 
VOXXWSYKYCBWHO-QMMMGPOBSA-N

$$$$
3OH-Phg_CONHpropylNMe2
     RDKit          2D

 18 18  0  0  0  0  0  0  0  0999 V2000
    1.1511   -2.2518    0.0000 N   0  0  0  0  0  0  0  0  0  0  0  0
    1.3016   -0.7594    0.0000 C   0  0  0  0  0  0  0  0  0  0  0  0
    2.6693   -0.1435    0.0000 C   0  0  0  0  0  0  0  0  0  0  0  0
    2.8198    1.3489    0.0000 C   0  0  0  0  0  0  0  0  0  0  0  0
    4.1875    1.9649    0.0000 C   0  0  0  0  0  0  0  0  0  0  0  0
    5.4048    1.0883    0.0000 C   0  0  0  0  0  0  0  0  0  0  0  0
    5.2543   -0.4041    0.0000 C   0  0  0  0  0  0  0  0  0  0  0  0
    6.4715   -1.2806    0.0000 O   0  0  0  0  0  0  0  0  0  0  0  0
    3.8866   -1.0200    0.0000 C   0  0  0  0  0  0  0  0  0  0  0  0
    0.0843    0.1171    0.0000 C   0  0  0  0  0  0  0  0  0  0  0  0
    0.2348    1.6096    0.0000 O   0  0  0  0  0  0  0  0  0  0  0  0
   -1.2834   -0.4988    0.0000 N   0  0  0  0  0  0  0  0  0  0  0  0
   -2.5006    0.3777    0.0000 C   0  0  0  0  0  0  0  0  0  0  0  0
   -3.8683   -0.2382    0.0000 C   0  0  0  0  0  0  0  0  0  0  0  0
   -5.0856    0.6384    0.0000 C   0  0  0  0  0  0  0  0  0  0  0  0
   -6.4533    0.0225    0.0000 N   0  0  0  0  0  0  0  0  0  0  0  0
   -7.6706    0.8990    0.0000 C   0  0  0  0  0  0  0  0  0  0  0  0
   -6.6038   -1.4700    0.0000 C   0  0  0  0  0  0  0  0  0  0  0  0
  2  1  1  6
  2  3  1  0
  3  4  2  0
  4  5  1  0
  5  6  2  0
  6  7  1  0
  7  8  1  0
  7  9  2  0
  2 10  1  0
 10 11  2  0
 10 12  1  0
 12 13  1  0
 13 14  1  0
 14 15  1  0
 15 16  1  0
 16 17  1  0
 16 18  1  0
  9  3  1  0
M  END
>  <rName>  (288) 
3OH-Phg_CONHpropylNMe2

>  <PQ_SYMBOL>  (288) 
3OH-Phg_CONHpropylNMe2

>  <FULL_NAME>  (288) 
(2S)-2-azanyl-N-[3-(dimethylamino)propyl]-2-(3-hydroxyphenyl)ethanamide

>  <IUPAC_CONDENSED>  (288) 
3OH-Phg(CONHpropylNMe2)

>  <IUPAC>  (288) 
(2S)-2-amino-N-(3-(dimethylamino)propyl)-2-(3-hydroxyphenyl)acetamide

>  <TYPE>  (288) 
C-term cap

>  <CLASS>  (288) 
c_cap

>  <ANALOG>  (288) 
X

>  <MOL_WT>  (288) 
251.32999999999993

>  <LOGP>  (288) 
0.4599

>  <TPSA>  (288) 
78.58999999999999

>  <POPULARITY>  (288) 
4

>  <PROTECTED>  (288) 
FALSE

>  <SMILES>  (288) 
N[C@@H](c1(cccc(O)c1))C(=O)NCCCN(C)C

>  <INCHIKEY>  (288) 
KSEUOWAHQDFOCP-LBPRGKRZSA-N

$$$$
His-NH2
     RDKit          2D

 11 11  0  0  0  0  0  0  0  0999 V2000
   -0.9461    1.6947    0.0000 N   0  0  0  0  0  0  0  0  0  0  0  0
   -1.3100    0.2395    0.0000 C   0  0  0  0  0  0  0  0  0  0  0  0
   -2.7522   -0.1729    0.0000 C   0  0  0  0  0  0  0  0  0  0  0  0
   -3.1161   -1.6281    0.0000 O   0  0  0  0  0  0  0  0  0  0  0  0
   -3.8304    0.8698    0.0000 N   0  0  0  0  0  0  0  0  0  0  0  0
   -0.2317   -0.8032    0.0000 C   0  0  0  0  0  0  0  0  0  0  0  0
    1.2105   -0.3908    0.0000 C   0  0  0  0  0  0  0  0  0  0  0  0
    2.3919   -1.3151    0.0000 C   0  0  0  0  0  0  0  0  0  0  0  0
    3.6360   -0.4772    0.0000 N   0  0  0  0  0  0  0  0  0  0  0  0
    3.2236    0.9650    0.0000 C   0  0  0  0  0  0  0  0  0  0  0  0
    1.7245    1.0184    0.0000 N   0  0  0  0  0  0  0  0  0  0  0  0
  2  1  1  1
  2  3  1  0
  3  4  2  0
  3  5  1  0
  2  6  1  0
  6  7  1  0
  7  8  2  0
  8  9  1  0
  9 10  1  0
 10 11  2  0
 11  7  1  0
M  END
>  <rName>  (289) 
His-NH2

>  <PQ_SYMBOL>  (289) 
His-NH2

>  <FULL_NAME>  (289) 
L-HISTIDINE AMIDE

>  <IUPAC_CONDENSED>  (289) 
His-NH2

>  <IUPAC>  (289) 
(2S)-2-amino-3-(1H-imidazol-4-yl)propanamide

>  <TYPE>  (289) 
C-term cap

>  <CLASS>  (289) 
c_cap

>  <ANALOG>  (289) 
X

>  <MOL_WT>  (289) 
154.173

>  <LOGP>  (289) 
-1.2351999999999999

>  <TPSA>  (289) 
97.79

>  <POPULARITY>  (289) 
15.1

>  <PROTECTED>  (289) 
FALSE

>  <SMILES>  (289) 
N[C@H](C(=O)N)Cc1c[nH]cn1

>  <INCHIKEY>  (289) 
UMMQVDUMUMBTAV-YFKPBYRVSA-N

$$$$
amino-sulfooxypropyl-oxazolethioate
     RDKit          2D

 18 18  0  0  0  0  0  0  0  0999 V2000
   -0.5001   -3.1508    0.0000 N   0  0  0  0  0  0  0  0  0  0  0  0
   -0.6777   -1.6614    0.0000 C   0  0  0  0  0  0  0  0  0  0  0  0
   -2.0564   -1.0704    0.0000 C   0  0  0  0  0  0  0  0  0  0  0  0
   -2.2339    0.4191    0.0000 O   0  0  0  0  0  0  0  0  0  0  0  0
   -3.6126    1.0100    0.0000 S   0  0  0  0  0  0  0  0  0  0  0  0
   -4.2036   -0.3687    0.0000 O   0  0  0  0  0  0  0  0  0  0  0  0
   -3.0216    2.3887    0.0000 O   0  0  0  0  0  0  0  0  0  0  0  0
   -4.9913    1.6010    0.0000 O   0  0  0  0  0  0  0  0  0  0  0  0
   -3.2575   -1.9689    0.0000 C   0  0  0  0  0  0  0  0  0  0  0  0
    0.5234   -0.7629    0.0000 C   0  0  0  0  0  0  0  0  0  0  0  0
    1.9563   -1.2065    0.0000 N   0  0  0  0  0  0  0  0  0  0  0  0
    2.8210    0.0192    0.0000 C   0  0  0  0  0  0  0  0  0  0  0  0
    1.9226    1.2203    0.0000 C   0  0  0  0  0  0  0  0  0  0  0  0
    2.3662    2.6532    0.0000 O   0  0  0  0  0  0  0  0  0  0  0  0
    0.5026    0.7370    0.0000 O   0  0  0  0  0  0  0  0  0  0  0  0
    4.3209    0.0401    0.0000 C   0  0  0  0  0  0  0  0  0  0  0  0
    5.0889   -1.2484    0.0000 O   0  0  0  0  0  0  0  0  0  0  0  0
    5.0527    1.3494    0.0000 S   0  0  0  0  0  0  0  0  0  0  0  0
  2  1  1  1
  2  3  1  0
  3  4  1  0
  4  5  1  0
  5  6  2  0
  5  7  2  0
  5  8  1  0
  3  9  1  1
  2 10  1  0
 10 11  2  0
 11 12  1  0
 12 13  2  0
 13 14  1  0
 13 15  1  0
 12 16  1  0
 16 17  1  0
 16 18  2  0
 15 10  1  0
M  END
>  <rName>  (290) 
amino-sulfooxypropyl-oxazolethioate

>  <PQ_SYMBOL>  (290) 
amino-sulfooxypropyl-oxazolethioate

>  <FULL_NAME>  (290) 
2-[(1S,2R)-1-amino-2-(sulfooxy)propyl]-5-hydroxy-1,3-oxazole-4-carbothioic O-acid

>  <IUPAC_CONDENSED>  (290) 
amino-sulfooxypropyl-oxazolethioate

>  <IUPAC>  (290) 
(1S,2R)-1-amino-1-(5-hydroxy-4-((hydroxy)(thioxo)methyl)oxazol-2-yl)propan-2-yl hydrogen sulfate

>  <TYPE>  (290) 
C-term cap

>  <CLASS>  (290) 
c_cap

>  <ANALOG>  (290) 
X

>  <MOL_WT>  (290) 
298.298

>  <LOGP>  (290) 
-0.17859999999999965

>  <TPSA>  (290) 
156.10999999999999

>  <POPULARITY>  (290) 
4.9

>  <PROTECTED>  (290) 
FALSE

>  <SMILES>  (290) 
N[C@@H]([C@H](OS(=O)(=O)O)C)c1nc(c(O)o1)C(O)=S

>  <INCHIKEY>  (290) 
ARRKNNQNBGDPEN-GBXIJSLDSA-N

$$$$
hPhe-Me
     RDKit          2D

 13 13  0  0  0  0  0  0  0  0999 V2000
   -2.6715   -1.9340    0.0000 N   0  0  0  0  0  0  0  0  0  0  0  0
   -2.4130   -0.4565    0.0000 C   0  0  0  0  0  0  0  0  0  0  0  0
   -3.5634    0.5061    0.0000 C   0  0  0  0  0  0  0  0  0  0  0  0
   -3.3050    1.9837    0.0000 O   0  0  0  0  0  0  0  0  0  0  0  0
   -4.9723   -0.0089    0.0000 C   0  0  0  0  0  0  0  0  0  0  0  0
   -1.0042    0.0585    0.0000 C   0  0  0  0  0  0  0  0  0  0  0  0
    0.1462   -0.9041    0.0000 C   0  0  0  0  0  0  0  0  0  0  0  0
    1.5550   -0.3891    0.0000 C   0  0  0  0  0  0  0  0  0  0  0  0
    1.8135    1.0885    0.0000 C   0  0  0  0  0  0  0  0  0  0  0  0
    3.2223    1.6034    0.0000 C   0  0  0  0  0  0  0  0  0  0  0  0
    4.3727    0.6408    0.0000 C   0  0  0  0  0  0  0  0  0  0  0  0
    4.1143   -0.8367    0.0000 C   0  0  0  0  0  0  0  0  0  0  0  0
    2.7054   -1.3517    0.0000 C   0  0  0  0  0  0  0  0  0  0  0  0
  2  1  1  6
  2  3  1  0
  3  4  2  0
  3  5  1  0
  2  6  1  0
  6  7  1  0
  7  8  1  0
  8  9  2  0
  9 10  1  0
 10 11  2  0
 11 12  1  0
 12 13  2  0
 13  8  1  0
M  END
>  <rName>  (291) 
hPhe-Me

>  <PQ_SYMBOL>  (291) 
hPhe-Me

>  <FULL_NAME>  (291) 
HOMOPHENYLALANINYLMETHANE

>  <IUPAC_CONDENSED>  (291) 
hPhe-Me

>  <IUPAC>  (291) 
(3S)-3-amino-5-phenylpentan-2-one

>  <TYPE>  (291) 
C-term cap

>  <CLASS>  (291) 
c_cap

>  <ANALOG>  (291) 
X

>  <MOL_WT>  (291) 
177.247

>  <LOGP>  (291) 
1.5354999999999999

>  <TPSA>  (291) 
43.09

>  <POPULARITY>  (291) 
5.7

>  <PROTECTED>  (291) 
FALSE

>  <SMILES>  (291) 
N[C@H](C(=O)C)CCc1ccccc1

>  <INCHIKEY>  (291) 
ZDTWNRLBYDWRII-NSHDSACASA-N

$$$$
Me-His-NH2
     RDKit          2D

 12 12  0  0  0  0  0  0  0  0999 V2000
   -0.9097    1.3884    0.0000 N   0  0  0  0  0  0  0  0  0  0  0  0
   -2.0799    2.3268    0.0000 C   0  0  0  0  0  0  0  0  0  0  0  0
   -1.1374   -0.0943    0.0000 C   0  0  0  0  0  0  0  0  0  0  0  0
   -2.5353   -0.6384    0.0000 C   0  0  0  0  0  0  0  0  0  0  0  0
   -2.7630   -2.1210    0.0000 O   0  0  0  0  0  0  0  0  0  0  0  0
   -3.7054    0.3001    0.0000 N   0  0  0  0  0  0  0  0  0  0  0  0
    0.0327   -1.0328    0.0000 C   0  0  0  0  0  0  0  0  0  0  0  0
    1.4305   -0.4886    0.0000 C   0  0  0  0  0  0  0  0  0  0  0  0
    2.6924   -1.2997    0.0000 C   0  0  0  0  0  0  0  0  0  0  0  0
    3.8536   -0.3502    0.0000 N   0  0  0  0  0  0  0  0  0  0  0  0
    3.3095    1.0476    0.0000 C   0  0  0  0  0  0  0  0  0  0  0  0
    1.8120    0.9621    0.0000 N   0  0  0  0  0  0  0  0  0  0  0  0
  1  2  1  0
  1  3  1  0
  3  4  1  0
  4  5  2  0
  4  6  1  0
  3  7  1  1
  7  8  1  0
  8  9  2  0
  9 10  1  0
 10 11  1  0
 11 12  2  0
 12  8  1  0
M  END
>  <rName>  (292) 
Me-His-NH2

>  <PQ_SYMBOL>  (292) 
Me-His-NH2

>  <FULL_NAME>  (292) 
N-ALPHA-METHYL-L-HISTIDINAMIDE

>  <IUPAC_CONDENSED>  (292) 
Me-His-NH2

>  <IUPAC>  (292) 
(2S)-3-(1H-imidazol-4-yl)-2-(methylamino)propanamide

>  <TYPE>  (292) 
C-term cap

>  <CLASS>  (292) 
c_cap

>  <ANALOG>  (292) 
X

>  <MOL_WT>  (292) 
168.20000000000002

>  <LOGP>  (292) 
-0.9744999999999999

>  <TPSA>  (292) 
83.8

>  <POPULARITY>  (292) 
13.2

>  <PROTECTED>  (292) 
FALSE

>  <SMILES>  (292) 
N(C)[C@H](C(=O)N)Cc1c[nH]cn1

>  <INCHIKEY>  (292) 
IKHTZFHDCRBHBJ-LURJTMIESA-N

$$$$
Hsl
     RDKit          2D

  7  7  0  0  0  0  0  0  0  0999 V2000
    1.6042   -1.6317    0.0000 N   0  0  0  0  0  0  0  0  0  0  0  0
    0.3906   -0.7500    0.0000 C   0  0  0  0  0  0  0  0  0  0  0  0
    0.3906    0.7500    0.0000 C   0  0  0  0  0  0  0  0  0  0  0  0
    1.6042    1.6317    0.0000 O   0  0  0  0  0  0  0  0  0  0  0  0
   -1.0360    1.2135    0.0000 O   0  0  0  0  0  0  0  0  0  0  0  0
   -1.9176   -0.0000    0.0000 C   0  0  0  0  0  0  0  0  0  0  0  0
   -1.0360   -1.2135    0.0000 C   0  0  0  0  0  0  0  0  0  0  0  0
  2  1  1  1
  2  3  1  0
  3  4  2  0
  3  5  1  0
  5  6  1  0
  6  7  1  0
  7  2  1  0
M  END
>  <rName>  (293) 
Hsl

>  <PQ_SYMBOL>  (293) 
Hsl

>  <FULL_NAME>  (293) 
HOMOSERINE LACTONE

>  <IUPAC_CONDENSED>  (293) 
Hsl

>  <IUPAC>  (293) 
(3S)-3-aminooxolan-2-one

>  <TYPE>  (293) 
C-term cap

>  <CLASS>  (293) 
c_cap

>  <ANALOG>  (293) 
X

>  <MOL_WT>  (293) 
101.105

>  <LOGP>  (293) 
-0.7394000000000001

>  <TPSA>  (293) 
52.32000000000001

>  <POPULARITY>  (293) 
15.6

>  <PROTECTED>  (293) 
FALSE

>  <SMILES>  (293) 
N[C@@H]1C(=O)OCC1

>  <INCHIKEY>  (293) 
QJPWUUJVYOJNMH-VKHMYHEASA-N

$$$$
His-ol
     RDKit          2D

 10 10  0  0  0  0  0  0  0  0999 V2000
   -1.4194    1.3834    0.0000 N   0  0  0  0  0  0  0  0  0  0  0  0
   -1.6201   -0.1031    0.0000 C   0  0  0  0  0  0  0  0  0  0  0  0
   -3.0078   -0.6725    0.0000 C   0  0  0  0  0  0  0  0  0  0  0  0
   -4.1948    0.2446    0.0000 O   0  0  0  0  0  0  0  0  0  0  0  0
   -0.4331   -1.0202    0.0000 C   0  0  0  0  0  0  0  0  0  0  0  0
    0.9546   -0.4508    0.0000 C   0  0  0  0  0  0  0  0  0  0  0  0
    2.2309   -1.2388    0.0000 C   0  0  0  0  0  0  0  0  0  0  0  0
    3.3748   -0.2685    0.0000 N   0  0  0  0  0  0  0  0  0  0  0  0
    2.8054    1.1193    0.0000 C   0  0  0  0  0  0  0  0  0  0  0  0
    1.3096    1.0066    0.0000 N   0  0  0  0  0  0  0  0  0  0  0  0
  2  1  1  1
  2  3  1  0
  3  4  1  0
  2  5  1  0
  5  6  1  0
  6  7  2  0
  7  8  1  0
  8  9  1  0
  9 10  2  0
 10  6  1  0
M  END
>  <rName>  (294) 
His-ol

>  <PQ_SYMBOL>  (294) 
His-ol

>  <FULL_NAME>  (294) 
L-histidinol

>  <IUPAC_CONDENSED>  (294) 
His-ol

>  <IUPAC>  (294) 
(2S)-2-amino-3-(1H-imidazol-4-yl)propan-1-ol

>  <TYPE>  (294) 
C-term cap

>  <CLASS>  (294) 
c_cap

>  <ANALOG>  (294) 
X

>  <MOL_WT>  (294) 
141.17399999999998

>  <LOGP>  (294) 
-0.7282000000000004

>  <TPSA>  (294) 
74.93

>  <POPULARITY>  (294) 
16.1

>  <PROTECTED>  (294) 
FALSE

>  <SMILES>  (294) 
N[C@H](CO)Cc1c[nH]cn1

>  <INCHIKEY>  (294) 
ZQISRDCJNBUVMM-YFKPBYRVSA-N

$$$$
aminohydroxyhexyl-iminohexanetriol
     RDKit          2D

 19 18  0  0  0  0  0  0  0  0999 V2000
   -5.7983   -1.8051    0.0000 N   0  0  0  0  0  0  0  0  0  0  0  0
   -5.7545   -0.3058    0.0000 C   0  0  0  0  0  0  0  0  0  0  0  0
   -7.0311    0.4818    0.0000 C   0  0  0  0  0  0  0  0  0  0  0  0
   -8.3515   -0.2299    0.0000 O   0  0  0  0  0  0  0  0  0  0  0  0
   -6.9873    1.9812    0.0000 O   0  0  0  0  0  0  0  0  0  0  0  0
   -4.4341    0.4060    0.0000 C   0  0  0  0  0  0  0  0  0  0  0  0
   -3.1575   -0.3816    0.0000 C   0  0  0  0  0  0  0  0  0  0  0  0
   -1.8371    0.3301    0.0000 C   0  0  0  0  0  0  0  0  0  0  0  0
   -0.5606   -0.4575    0.0000 C   0  0  0  0  0  0  0  0  0  0  0  0
    0.7598    0.2542    0.0000 N   0  0  0  0  0  0  0  0  0  0  0  0
    2.0364   -0.5334    0.0000 C   0  0  0  0  0  0  0  0  0  0  0  0
    1.9926   -2.0327    0.0000 C   0  0  0  0  0  0  0  0  0  0  0  0
    3.3568    0.1784    0.0000 C   0  0  0  0  0  0  0  0  0  0  0  0
    3.4006    1.6777    0.0000 O   0  0  0  0  0  0  0  0  0  0  0  0
    4.6334   -0.6092    0.0000 C   0  0  0  0  0  0  0  0  0  0  0  0
    5.9538    0.1025    0.0000 C   0  0  0  0  0  0  0  0  0  0  0  0
    5.9976    1.6019    0.0000 O   0  0  0  0  0  0  0  0  0  0  0  0
    7.2303   -0.6851    0.0000 C   0  0  0  0  0  0  0  0  0  0  0  0
    8.5507    0.0266    0.0000 O   0  0  0  0  0  0  0  0  0  0  0  0
  2  1  1  6
  2  3  1  0
  3  4  1  0
  3  5  1  0
  2  6  1  0
  6  7  1  0
  7  8  1  0
  8  9  1  0
  9 10  1  0
 10 11  2  0
 11 12  1  0
 11 13  1  0
 13 14  1  6
 13 15  1  0
 15 16  1  0
 16 17  1  6
 16 18  1  0
 18 19  1  0
M  END
>  <rName>  (295) 
aminohydroxyhexyl-iminohexanetriol

>  <PQ_SYMBOL>  (295) 
aminohydroxyhexyl-iminohexanetriol

>  <FULL_NAME>  (295) 
(2~{S},4~{R},5~{E})-5-[(5~{S})-5-azanyl-6-oxidanyl-hexyl]iminohexane-1,2,4-triol

>  <IUPAC_CONDENSED>  (295) 
aminohydroxyhexyl-iminohexanetriol

>  <IUPAC>  (295) 
(2S,4R,5E)-5-(((5S)-5-amino-6,6-dihydroxyhexyl)imino)hexane-1,2,4-triol

>  <TYPE>  (295) 
C-term cap

>  <CLASS>  (295) 
c_cap

>  <ANALOG>  (295) 
X

>  <MOL_WT>  (295) 
278.34900000000005

>  <LOGP>  (295) 
-1.6401999999999992

>  <TPSA>  (295) 
139.53

>  <POPULARITY>  (295) 
3.2

>  <PROTECTED>  (295) 
FALSE

>  <SMILES>  (295) 
N[C@H](C(O)O)CCCC/N=C(\C)[C@H](O)C[C@H](O)CO

>  <INCHIKEY>  (295) 
NOGRJEXZOQDSRE-WDLDIGNLSA-N

$$$$
MeOPhS-Bz_NMeiPrsulfonamido
     RDKit          2D

 26 27  0  0  0  0  0  0  0  0999 V2000
   -8.2705    1.5451    0.0000 C   0  0  0  0  0  0  0  0  0  0  0  0
   -6.8933    2.1397    0.0000 O   0  0  0  0  0  0  0  0  0  0  0  0
   -5.6899    1.2443    0.0000 C   0  0  0  0  0  0  0  0  0  0  0  0
   -5.8636   -0.2457    0.0000 C   0  0  0  0  0  0  0  0  0  0  0  0
   -4.6602   -1.1410    0.0000 C   0  0  0  0  0  0  0  0  0  0  0  0
   -3.2830   -0.5465    0.0000 C   0  0  0  0  0  0  0  0  0  0  0  0
   -3.1093    0.9434    0.0000 C   0  0  0  0  0  0  0  0  0  0  0  0
   -4.3127    1.8388    0.0000 C   0  0  0  0  0  0  0  0  0  0  0  0
   -2.0796   -1.4419    0.0000 S   0  0  0  0  0  0  0  0  0  0  0  0
   -0.7024   -0.8474    0.0000 C   0  0  0  0  0  0  0  0  0  0  0  0
    0.5010   -1.7428    0.0000 C   0  0  0  0  0  0  0  0  0  0  0  0
    1.8782   -1.1483    0.0000 C   0  0  0  0  0  0  0  0  0  0  0  0
    2.0519    0.3416    0.0000 C   0  0  0  0  0  0  0  0  0  0  0  0
    0.8484    1.2370    0.0000 C   0  0  0  0  0  0  0  0  0  0  0  0
   -0.5287    0.6425    0.0000 C   0  0  0  0  0  0  0  0  0  0  0  0
    3.4290    0.9361    0.0000 S   0  0  0  0  0  0  0  0  0  0  0  0
    4.0236   -0.4411    0.0000 O   0  0  0  0  0  0  0  0  0  0  0  0
    2.8345    2.3133    0.0000 O   0  0  0  0  0  0  0  0  0  0  0  0
    4.8062    1.5306    0.0000 N   0  0  0  0  0  0  0  0  0  0  0  0
    4.9799    3.0205    0.0000 C   0  0  0  0  0  0  0  0  0  0  0  0
    6.0096    0.6352    0.0000 C   0  0  0  0  0  0  0  0  0  0  0  0
    7.3868    1.2297    0.0000 C   0  0  0  0  0  0  0  0  0  0  0  0
    5.8359   -0.8547    0.0000 C   0  0  0  0  0  0  0  0  0  0  0  0
    0.3273   -3.2327    0.0000 C   0  0  0  0  0  0  0  0  0  0  0  0
   -1.0499   -3.8272    0.0000 O   0  0  0  0  0  0  0  0  0  0  0  0
    1.5307   -4.1281    0.0000 O   0  0  0  0  0  0  0  0  0  0  0  0
  1  2  1  0
  2  3  1  0
  3  4  1  0
  4  5  2  0
  5  6  1  0
  6  7  2  0
  7  8  1  0
  6  9  1  0
  9 10  1  0
 10 11  2  0
 11 12  1  0
 12 13  2  0
 13 14  1  0
 14 15  2  0
 13 16  1  0
 16 17  2  0
 16 18  2  0
 16 19  1  0
 19 20  1  0
 19 21  1  0
 21 22  1  0
 21 23  1  0
 11 24  1  0
 24 25  2  0
 24 26  1  0
 15 10  1  0
  8  3  2  0
M  END
>  <rName>  (296) 
MeOPhS-Bz_NMeiPrsulfonamido

>  <PQ_SYMBOL>  (296) 
MeOPhS-Bz_NMeiPrsulfonamido

>  <FULL_NAME>  (296) 
2-[(4-methoxyphenyl)sulfanyl]-5-[methyl(propan-2-yl)sulfamoyl]benzoic acid

>  <IUPAC_CONDENSED>  (296) 
MeOPhS-Bz(NMeiPr-sulfonamido)

>  <IUPAC>  (296) 
2-((4-methoxyphenyl)sulfanyl)-5-((propan-2-yl)(methyl)sulfamoyl)benzoic acid

>  <TYPE>  (296) 
N-term cap

>  <CLASS>  (296) 
n_cap

>  <ANALOG>  (296) 
X

>  <MOL_WT>  (296) 
395.5020000000002

>  <LOGP>  (296) 
3.573500000000002

>  <TPSA>  (296) 
83.91000000000001

>  <POPULARITY>  (296) 
0.8

>  <PROTECTED>  (296) 
FALSE

>  <SMILES>  (296) 
COc2ccc(cc2)Sc1c(cc(cc1)S(=O)(=O)N(C)C(C)C)C(=O)O

>  <INCHIKEY>  (296) 
RKJXIRNKSLSTPR-UHFFFAOYSA-N

$$$$
Hyp-NH2
     RDKit          2D

  9  9  0  0  0  0  0  0  0  0999 V2000
    0.1792   -1.4541    0.0000 N   0  0  0  0  0  0  0  0  0  0  0  0
    1.6673   -1.2657    0.0000 C   0  0  0  0  0  0  0  0  0  0  0  0
    1.9481    0.2077    0.0000 C   0  0  0  0  0  0  0  0  0  0  0  0
    0.6334    0.9301    0.0000 C   0  0  0  0  0  0  0  0  0  0  0  0
   -0.4598   -0.0969    0.0000 C   0  0  0  0  0  0  0  0  0  0  0  0
   -1.9333    0.1838    0.0000 C   0  0  0  0  0  0  0  0  0  0  0  0
   -2.9132   -0.9519    0.0000 O   0  0  0  0  0  0  0  0  0  0  0  0
   -2.4269    1.6003    0.0000 N   0  0  0  0  0  0  0  0  0  0  0  0
    3.3052    0.8467    0.0000 O   0  0  0  0  0  0  0  0  0  0  0  0
  1  2  1  0
  2  3  1  0
  3  4  1  0
  4  5  1  0
  5  6  1  6
  6  7  2  0
  6  8  1  0
  3  9  1  1
  5  1  1  0
M  END
>  <rName>  (297) 
Hyp-NH2

>  <PQ_SYMBOL>  (297) 
Hyp-NH2

>  <FULL_NAME>  (297) 
(2~{S},4~{R})-4-oxidanylpyrrolidine-2-carboxamide

>  <IUPAC_CONDENSED>  (297) 
Hyp-NH2

>  <IUPAC>  (297) 
(2S,4R)-4-hydroxypyrrolidine-2-carboxamide

>  <TYPE>  (297) 
C-term cap

>  <CLASS>  (297) 
c_cap

>  <ANALOG>  (297) 
X

>  <MOL_WT>  (297) 
130.14700000000002

>  <LOGP>  (297) 
-1.8054999999999992

>  <TPSA>  (297) 
75.35000000000001

>  <POPULARITY>  (297) 
10.2

>  <PROTECTED>  (297) 
FALSE

>  <SMILES>  (297) 
N1C[C@@H](C[C@H]1C(=O)N)O

>  <INCHIKEY>  (297) 
OJSXAYGYRGXDSQ-DMTCNVIQSA-N

$$$$
imidazolyl-dodecanoyl-Leu
     RDKit          2D

 27 27  0  0  0  0  0  0  0  0999 V2000
  -12.1243   -1.7759    0.0000 N   0  0  0  0  0  0  0  0  0  0  0  0
  -10.6617   -1.4430    0.0000 C   0  0  0  0  0  0  0  0  0  0  0  0
  -10.5263    0.0508    0.0000 N   0  0  0  0  0  0  0  0  0  0  0  0
  -11.9052    0.6413    0.0000 C   0  0  0  0  0  0  0  0  0  0  0  0
  -12.8928   -0.4877    0.0000 C   0  0  0  0  0  0  0  0  0  0  0  0
   -9.2381    0.8194    0.0000 C   0  0  0  0  0  0  0  0  0  0  0  0
   -7.9285    0.0880    0.0000 C   0  0  0  0  0  0  0  0  0  0  0  0
   -6.6403    0.8565    0.0000 C   0  0  0  0  0  0  0  0  0  0  0  0
   -5.3306    0.1252    0.0000 C   0  0  0  0  0  0  0  0  0  0  0  0
   -4.0425    0.8937    0.0000 C   0  0  0  0  0  0  0  0  0  0  0  0
   -2.7328    0.1624    0.0000 C   0  0  0  0  0  0  0  0  0  0  0  0
   -1.4447    0.9309    0.0000 C   0  0  0  0  0  0  0  0  0  0  0  0
   -0.1350    0.1996    0.0000 C   0  0  0  0  0  0  0  0  0  0  0  0
    1.1531    0.9681    0.0000 C   0  0  0  0  0  0  0  0  0  0  0  0
    2.4628    0.2367    0.0000 C   0  0  0  0  0  0  0  0  0  0  0  0
    3.7510    1.0053    0.0000 C   0  0  0  0  0  0  0  0  0  0  0  0
    5.0606    0.2739    0.0000 C   0  0  0  0  0  0  0  0  0  0  0  0
    5.0821   -1.2259    0.0000 O   0  0  0  0  0  0  0  0  0  0  0  0
    6.3488    1.0424    0.0000 N   0  0  0  0  0  0  0  0  0  0  0  0
    7.6584    0.3111    0.0000 C   0  0  0  0  0  0  0  0  0  0  0  0
    8.9466    1.0796    0.0000 C   0  0  0  0  0  0  0  0  0  0  0  0
   10.2562    0.3483    0.0000 C   0  0  0  0  0  0  0  0  0  0  0  0
   11.5444    1.1168    0.0000 C   0  0  0  0  0  0  0  0  0  0  0  0
   10.2777   -1.1516    0.0000 C   0  0  0  0  0  0  0  0  0  0  0  0
    7.6799   -1.1887    0.0000 C   0  0  0  0  0  0  0  0  0  0  0  0
    6.3917   -1.9572    0.0000 O   0  0  0  0  0  0  0  0  0  0  0  0
    8.9895   -1.9201    0.0000 O   0  0  0  0  0  0  0  0  0  0  0  0
  1  2  2  0
  2  3  1  0
  3  4  1  0
  4  5  2  0
  3  6  1  0
  6  7  1  0
  7  8  1  0
  8  9  1  0
  9 10  1  0
 10 11  1  0
 11 12  1  0
 12 13  1  0
 13 14  1  0
 14 15  1  0
 15 16  1  0
 16 17  1  0
 17 18  2  0
 17 19  1  0
 19 20  1  0
 20 21  1  1
 21 22  1  0
 22 23  1  0
 22 24  1  0
 20 25  1  0
 25 26  2  0
 25 27  1  0
  5  1  1  0
M  END
>  <rName>  (298) 
imidazolyl-dodecanoyl-Leu

>  <PQ_SYMBOL>  (298) 
imidazolyl-dodecanoyl-Leu

>  <FULL_NAME>  (298) 
N-[12-(1H-imidazol-1-yl)dodecanoyl]-L-leucine

>  <IUPAC_CONDENSED>  (298) 
imidazolyl-dodecanoyl-Leu

>  <IUPAC>  (298) 
(2S)-2-(11-(1H-imidazol-1-yl)undecylcarbonylamino)-4-methylpentanoic acid

>  <TYPE>  (298) 
N-term cap

>  <CLASS>  (298) 
n_cap

>  <ANALOG>  (298) 
X

>  <MOL_WT>  (298) 
379.545

>  <LOGP>  (298) 
4.399600000000003

>  <TPSA>  (298) 
84.22

>  <POPULARITY>  (298) 
3.4

>  <PROTECTED>  (298) 
FALSE

>  <SMILES>  (298) 
n1cn(cc1)CCCCCCCCCCCC(=O)N[C@@H](CC(C)C)C(=O)O

>  <INCHIKEY>  (298) 
PSJOKLGFODYIHJ-IBGZPJMESA-N

$$$$
Pro-NH2
     RDKit          2D

  8  8  0  0  0  0  0  0  0  0999 V2000
   -0.8342   -1.2135    0.0000 N   0  0  0  0  0  0  0  0  0  0  0  0
    0.0475   -0.0000    0.0000 C   0  0  0  0  0  0  0  0  0  0  0  0
   -0.8342    1.2135    0.0000 C   0  0  0  0  0  0  0  0  0  0  0  0
   -2.2608    0.7500    0.0000 C   0  0  0  0  0  0  0  0  0  0  0  0
   -2.2608   -0.7500    0.0000 C   0  0  0  0  0  0  0  0  0  0  0  0
    1.5475    0.0000    0.0000 C   0  0  0  0  0  0  0  0  0  0  0  0
    2.2975   -1.2990    0.0000 N   0  0  0  0  0  0  0  0  0  0  0  0
    2.2975    1.2990    0.0000 O   0  0  0  0  0  0  0  0  0  0  0  0
  1  2  1  0
  2  3  1  0
  3  4  1  0
  4  5  1  0
  2  6  1  1
  6  7  1  0
  6  8  2  0
  5  1  1  0
M  END
>  <rName>  (299) 
Pro-NH2

>  <PQ_SYMBOL>  (299) 
Pro-NH2

>  <FULL_NAME>  (299) 
L-PROLINAMIDE

>  <IUPAC_CONDENSED>  (299) 
Pro-NH2

>  <IUPAC>  (299) 
(2S)-pyrrolidine-2-carboxamide

>  <TYPE>  (299) 
C-term cap

>  <CLASS>  (299) 
c_cap

>  <ANALOG>  (299) 
X

>  <MOL_WT>  (299) 
114.14800000000001

>  <LOGP>  (299) 
-0.7763000000000002

>  <TPSA>  (299) 
55.12

>  <POPULARITY>  (299) 
26.6

>  <PROTECTED>  (299) 
FALSE

>  <SMILES>  (299) 
N1[C@@H](CCC1)C(N)=O

>  <INCHIKEY>  (299) 
VLJNHYLEOZPXFW-BYPYZUCNSA-N

$$$$
Ala_CON_2Mepiperidino
     RDKit          2D

 15 15  0  0  0  0  0  0  0  0999 V2000
   -2.7298   -1.7488    0.0000 N   0  0  0  0  0  0  0  0  0  0  0  0
   -2.5580   -0.2586    0.0000 C   0  0  0  0  0  0  0  0  0  0  0  0
   -1.1815    0.3376    0.0000 C   0  0  0  0  0  0  0  0  0  0  0  0
    0.0230   -0.5563    0.0000 C   0  0  0  0  0  0  0  0  0  0  0  0
   -0.1488   -2.0464    0.0000 O   0  0  0  0  0  0  0  0  0  0  0  0
    1.3994    0.0399    0.0000 N   0  0  0  0  0  0  0  0  0  0  0  0
    1.5713    1.5300    0.0000 C   0  0  0  0  0  0  0  0  0  0  0  0
    2.9477    2.1263    0.0000 C   0  0  0  0  0  0  0  0  0  0  0  0
    4.1523    1.2324    0.0000 C   0  0  0  0  0  0  0  0  0  0  0  0
    3.9804   -0.2577    0.0000 C   0  0  0  0  0  0  0  0  0  0  0  0
    2.6040   -0.8540    0.0000 C   0  0  0  0  0  0  0  0  0  0  0  0
    2.4321   -2.3441    0.0000 C   0  0  0  0  0  0  0  0  0  0  0  0
   -3.7625    0.6353    0.0000 C   0  0  0  0  0  0  0  0  0  0  0  0
   -3.5906    2.1254    0.0000 O   0  0  0  0  0  0  0  0  0  0  0  0
   -5.1389    0.0390    0.0000 O   0  0  0  0  0  0  0  0  0  0  0  0
  2  1  1  6
  2  3  1  0
  3  4  1  0
  4  5  2  0
  4  6  1  0
  6  7  1  0
  7  8  1  0
  8  9  1  0
  9 10  1  0
 10 11  1  0
 11 12  1  6
  2 13  1  0
 13 14  2  0
 13 15  1  0
 11  6  1  0
M  END
>  <rName>  (300) 
Ala_CON_2Mepiperidino

>  <PQ_SYMBOL>  (300) 
Ala_CON_2Mepiperidino

>  <FULL_NAME>  (300) 
(2S)-2-amino-4-[(2S)-2-methylpiperidin-1-yl]-4-oxobutanoic acid

>  <IUPAC_CONDENSED>  (300) 
Ala(CON(2-Me-piperidino))

>  <IUPAC>  (300) 
(2S)-2-amino-4-((2S)-2-methylpiperidin-1-yl)-4-oxobutanoic acid

>  <TYPE>  (300) 
N-term cap

>  <CLASS>  (300) 
n_cap

>  <ANALOG>  (300) 
X

>  <MOL_WT>  (300) 
214.265

>  <LOGP>  (300) 
0.18939999999999974

>  <TPSA>  (300) 
83.63000000000001

>  <POPULARITY>  (300) 
1.7

>  <PROTECTED>  (300) 
FALSE

>  <SMILES>  (300) 
N[C@@H](CC(=O)N1(CCCC[C@@H]1C))C(=O)O

>  <INCHIKEY>  (300) 
QRGCQWGDUNCKGH-YUMQZZPRSA-N

$$$$
Ala_CON_2Phpyrrolidino
     RDKit          2D

 19 20  0  0  0  0  0  0  0  0999 V2000
   -2.6839    2.0911    0.0000 N   0  0  0  0  0  0  0  0  0  0  0  0
   -3.2076    0.6855    0.0000 C   0  0  0  0  0  0  0  0  0  0  0  0
   -2.2523   -0.4709    0.0000 C   0  0  0  0  0  0  0  0  0  0  0  0
   -0.7731   -0.2217    0.0000 C   0  0  0  0  0  0  0  0  0  0  0  0
   -0.2493    1.1838    0.0000 O   0  0  0  0  0  0  0  0  0  0  0  0
    0.1823   -1.3781    0.0000 N   0  0  0  0  0  0  0  0  0  0  0  0
   -0.1917   -2.8308    0.0000 C   0  0  0  0  0  0  0  0  0  0  0  0
    1.0742   -3.6354    0.0000 C   0  0  0  0  0  0  0  0  0  0  0  0
    2.2306   -2.6800    0.0000 C   0  0  0  0  0  0  0  0  0  0  0  0
    1.6794   -1.2850    0.0000 C   0  0  0  0  0  0  0  0  0  0  0  0
    2.4839   -0.0190    0.0000 C   0  0  0  0  0  0  0  0  0  0  0  0
    3.9826   -0.0828    0.0000 C   0  0  0  0  0  0  0  0  0  0  0  0
    4.7872    1.1832    0.0000 C   0  0  0  0  0  0  0  0  0  0  0  0
    4.0931    2.5129    0.0000 C   0  0  0  0  0  0  0  0  0  0  0  0
    2.5944    2.5767    0.0000 C   0  0  0  0  0  0  0  0  0  0  0  0
    1.7899    1.3108    0.0000 C   0  0  0  0  0  0  0  0  0  0  0  0
   -4.6868    0.4363    0.0000 C   0  0  0  0  0  0  0  0  0  0  0  0
   -5.2106   -0.9693    0.0000 O   0  0  0  0  0  0  0  0  0  0  0  0
   -5.6422    1.5927    0.0000 O   0  0  0  0  0  0  0  0  0  0  0  0
  2  1  1  1
  2  3  1  0
  3  4  1  0
  4  5  2  0
  4  6  1  0
  6  7  1  0
  7  8  1  0
  8  9  1  0
  9 10  1  0
 10 11  1  1
 11 12  2  0
 12 13  1  0
 13 14  2  0
 14 15  1  0
 15 16  2  0
  2 17  1  0
 17 18  2  0
 17 19  1  0
 10  6  1  0
 16 11  1  0
M  END
>  <rName>  (301) 
Ala_CON_2Phpyrrolidino

>  <PQ_SYMBOL>  (301) 
Ala_CON_2Phpyrrolidino

>  <FULL_NAME>  (301) 
(2S)-2-amino-4-oxo-4-[(2R)-2-phenylpyrrolidin-1-yl]butanoic acid

>  <IUPAC_CONDENSED>  (301) 
Ala(CON(2-Ph-pyrrolidino))

>  <IUPAC>  (301) 
(2S)-2-amino-4-oxo-4-((2R)-2-phenylpyrrolidin-1-yl)butanoic acid

>  <TYPE>  (301) 
N-term cap

>  <CLASS>  (301) 
n_cap

>  <ANALOG>  (301) 
X

>  <MOL_WT>  (301) 
262.309

>  <LOGP>  (301) 
1.1520999999999992

>  <TPSA>  (301) 
83.63000000000001

>  <POPULARITY>  (301) 
2.3

>  <PROTECTED>  (301) 
FALSE

>  <SMILES>  (301) 
N[C@@H](CC(=O)N1(CCC[C@@H]1c2(ccccc2)))C(=O)O

>  <INCHIKEY>  (301) 
NLDYOOGTZZVPGN-NWDGAFQWSA-N

$$$$
Phg35-diOH-OMe
     RDKit          2D

 14 14  0  0  0  0  0  0  0  0999 V2000
   -1.5013   -2.3830    0.0000 N   0  0  0  0  0  0  0  0  0  0  0  0
   -1.2160   -0.9104    0.0000 C   0  0  0  0  0  0  0  0  0  0  0  0
   -2.3487    0.0730    0.0000 C   0  0  0  0  0  0  0  0  0  0  0  0
   -2.0634    1.5456    0.0000 O   0  0  0  0  0  0  0  0  0  0  0  0
   -3.7667   -0.4163    0.0000 O   0  0  0  0  0  0  0  0  0  0  0  0
   -4.8994    0.5671    0.0000 C   0  0  0  0  0  0  0  0  0  0  0  0
    0.2020   -0.4211    0.0000 C   0  0  0  0  0  0  0  0  0  0  0  0
    0.4872    1.0515    0.0000 C   0  0  0  0  0  0  0  0  0  0  0  0
    1.9052    1.5408    0.0000 C   0  0  0  0  0  0  0  0  0  0  0  0
    2.1905    3.0134    0.0000 O   0  0  0  0  0  0  0  0  0  0  0  0
    3.0379    0.5574    0.0000 C   0  0  0  0  0  0  0  0  0  0  0  0
    2.7526   -0.9152    0.0000 C   0  0  0  0  0  0  0  0  0  0  0  0
    3.8853   -1.8986    0.0000 O   0  0  0  0  0  0  0  0  0  0  0  0
    1.3347   -1.4045    0.0000 C   0  0  0  0  0  0  0  0  0  0  0  0
  2  1  1  6
  2  3  1  0
  3  4  2  0
  3  5  1  0
  5  6  1  0
  2  7  1  0
  7  8  2  0
  8  9  1  0
  9 10  1  0
  9 11  2  0
 11 12  1  0
 12 13  1  0
 12 14  2  0
 14  7  1  0
M  END
>  <rName>  (302) 
Phg35-diOH-OMe

>  <PQ_SYMBOL>  (302) 
Phg35-diOH-OMe

>  <FULL_NAME>  (302) 
META, META'-DI-HYDROXY-PHENYLALANINE

>  <IUPAC_CONDENSED>  (302) 
Phg(3,5-diOH)-OMe

>  <IUPAC>  (302) 
methyl (2S)-2-amino-2-(3,5-dihydroxyphenyl)acetate

>  <TYPE>  (302) 
C-term cap

>  <CLASS>  (302) 
c_cap

>  <ANALOG>  (302) 
X

>  <MOL_WT>  (302) 
197.19

>  <LOGP>  (302) 
0.27059999999999995

>  <TPSA>  (302) 
92.78000000000002

>  <POPULARITY>  (302) 
4.1

>  <PROTECTED>  (302) 
FALSE

>  <SMILES>  (302) 
N[C@H](C(=O)OC)c1cc(O)cc(O)c1

>  <INCHIKEY>  (302) 
RPSOEOPINVKYBT-QMMMGPOBSA-N

$$$$
3OH-picolinoyl
     RDKit          2D

 10 10  0  0  0  0  0  0  0  0999 V2000
   -2.7096    0.1244    0.0000 C   0  0  0  0  0  0  0  0  0  0  0  0
   -2.0255    1.4594    0.0000 C   0  0  0  0  0  0  0  0  0  0  0  0
   -0.5274    1.5344    0.0000 N   0  0  0  0  0  0  0  0  0  0  0  0
    0.2866    0.2745    0.0000 C   0  0  0  0  0  0  0  0  0  0  0  0
   -0.3975   -1.0604    0.0000 C   0  0  0  0  0  0  0  0  0  0  0  0
    0.4166   -2.3203    0.0000 O   0  0  0  0  0  0  0  0  0  0  0  0
   -1.8956   -1.1355    0.0000 C   0  0  0  0  0  0  0  0  0  0  0  0
    1.7848    0.3495    0.0000 C   0  0  0  0  0  0  0  0  0  0  0  0
    2.4688    1.6844    0.0000 O   0  0  0  0  0  0  0  0  0  0  0  0
    2.5988   -0.9104    0.0000 O   0  0  0  0  0  0  0  0  0  0  0  0
  1  2  2  0
  2  3  1  0
  3  4  2  0
  4  5  1  0
  5  6  1  0
  5  7  2  0
  4  8  1  0
  8  9  2  0
  8 10  1  0
  7  1  1  0
M  END
>  <rName>  (303) 
3OH-picolinoyl

>  <PQ_SYMBOL>  (303) 
3OH-picolinoyl

>  <FULL_NAME>  (303) 
3-HYDROXYPICOLINIC ACID

>  <IUPAC_CONDENSED>  (303) 
3OH-picolinoyl

>  <IUPAC>  (303) 
3-hydroxypyridine-2-carboxylic acid

>  <TYPE>  (303) 
N-term cap

>  <CLASS>  (303) 
n_cap

>  <ANALOG>  (303) 
X

>  <MOL_WT>  (303) 
139.10999999999999

>  <LOGP>  (303) 
0.48539999999999994

>  <TPSA>  (303) 
70.42

>  <POPULARITY>  (303) 
22.9

>  <PROTECTED>  (303) 
FALSE

>  <SMILES>  (303) 
c1cnc(c(O)c1)C(=O)O

>  <INCHIKEY>  (303) 
BRARRAHGNDUELT-UHFFFAOYSA-N

$$$$
Ser_CONMe2
     RDKit          2D

 12 11  0  0  0  0  0  0  0  0999 V2000
    1.8826   -1.9413    0.0000 N   0  0  0  0  0  0  0  0  0  0  0  0
    1.9344   -0.4422    0.0000 C   0  0  0  0  0  0  0  0  0  0  0  0
    0.6621    0.3523    0.0000 C   0  0  0  0  0  0  0  0  0  0  0  0
   -0.6621   -0.3523    0.0000 O   0  0  0  0  0  0  0  0  0  0  0  0
   -1.9344    0.4422    0.0000 C   0  0  0  0  0  0  0  0  0  0  0  0
   -1.8826    1.9413    0.0000 O   0  0  0  0  0  0  0  0  0  0  0  0
   -3.2586   -0.2625    0.0000 N   0  0  0  0  0  0  0  0  0  0  0  0
   -4.5309    0.5320    0.0000 C   0  0  0  0  0  0  0  0  0  0  0  0
   -3.3105   -1.7616    0.0000 C   0  0  0  0  0  0  0  0  0  0  0  0
    3.2586    0.2625    0.0000 C   0  0  0  0  0  0  0  0  0  0  0  0
    3.3105    1.7616    0.0000 O   0  0  0  0  0  0  0  0  0  0  0  0
    4.5309   -0.5320    0.0000 O   0  0  0  0  0  0  0  0  0  0  0  0
  2  1  1  1
  2  3  1  0
  3  4  1  0
  4  5  1  0
  5  6  2  0
  5  7  1  0
  7  8  1  0
  7  9  1  0
  2 10  1  0
 10 11  2  0
 10 12  1  0
M  END
>  <rName>  (304) 
Ser_CONMe2

>  <PQ_SYMBOL>  (304) 
Ser_CONMe2

>  <FULL_NAME>  (304) 
(2~{S})-2-azanyl-3-(dimethylcarbamoyloxy)propanoic acid

>  <IUPAC_CONDENSED>  (304) 
Ser(CONMe2)

>  <IUPAC>  (304) 
(2S)-2-amino-3-(dimethylcarbamoyloxy)propanoic acid

>  <TYPE>  (304) 
N-term cap

>  <CLASS>  (304) 
n_cap

>  <ANALOG>  (304) 
X

>  <MOL_WT>  (304) 
176.172

>  <LOGP>  (304) 
-0.9035

>  <TPSA>  (304) 
92.86

>  <POPULARITY>  (304) 
4

>  <PROTECTED>  (304) 
FALSE

>  <SMILES>  (304) 
N[C@@H](COC(=O)N(C)C)C(=O)O

>  <INCHIKEY>  (304) 
YZZSSACJQJKEJY-BYPYZUCNSA-N

$$$$
1-amino-3-MeS-propylphosphonicacid
     RDKit          2D

 10  9  0  0  0  0  0  0  0  0999 V2000
   -2.0131   -1.9145    0.0000 N   0  0  0  0  0  0  0  0  0  0  0  0
   -0.9756   -0.8310    0.0000 C   0  0  0  0  0  0  0  0  0  0  0  0
   -1.3952    0.6091    0.0000 P   0  0  0  0  0  0  0  0  0  0  0  0
   -1.8147    2.0492    0.0000 O   0  0  0  0  0  0  0  0  0  0  0  0
   -2.8353    0.1895    0.0000 O   0  0  0  0  0  0  0  0  0  0  0  0
    0.0450    1.0286    0.0000 O   0  0  0  0  0  0  0  0  0  0  0  0
    0.4813   -1.1878    0.0000 C   0  0  0  0  0  0  0  0  0  0  0  0
    1.5188   -0.1044    0.0000 C   0  0  0  0  0  0  0  0  0  0  0  0
    2.9757   -0.4611    0.0000 S   0  0  0  0  0  0  0  0  0  0  0  0
    4.0131    0.6223    0.0000 C   0  0  0  0  0  0  0  0  0  0  0  0
  2  1  1  6
  2  3  1  0
  3  4  2  0
  3  5  1  0
  3  6  1  0
  2  7  1  0
  7  8  1  0
  8  9  1  0
  9 10  1  0
M  END
>  <rName>  (305) 
1-amino-3-MeS-propylphosphonicacid

>  <PQ_SYMBOL>  (305) 
1-amino-3-MeS-propylphosphonicacid

>  <FULL_NAME>  (305) 
(1-AMINO-3-METHYLSULFANYL-PROPYL)-PHOSPHONIC ACID

>  <IUPAC_CONDENSED>  (305) 
1-amino-3-MeS-propylphosphonic acid

>  <IUPAC>  (305) 
(1R)-1-(dihydroxyphosphoryl)-3-(methylsulfanyl)propan-1-amine

>  <TYPE>  (305) 
C-term cap

>  <CLASS>  (305) 
c_cap

>  <ANALOG>  (305) 
X

>  <MOL_WT>  (305) 
185.18499999999997

>  <LOGP>  (305) 
0.20200000000000007

>  <TPSA>  (305) 
83.55000000000001

>  <POPULARITY>  (305) 
6

>  <PROTECTED>  (305) 
FALSE

>  <SMILES>  (305) 
N[C@H](P(=O)(O)O)CCSC

>  <INCHIKEY>  (305) 
XKCSXHUCPYVQIW-SCSAIBSYSA-N

$$$$
1-amino-3-MeS-propylphosphinicacid
     RDKit          2D

  9  8  0  0  0  0  0  0  0  0999 V2000
   -2.2216   -1.7821    0.0000 N   0  0  0  0  0  0  0  0  0  0  0  0
   -1.1527   -0.7297    0.0000 C   0  0  0  0  0  0  0  0  0  0  0  0
   -1.5296    0.7222    0.0000 P   0  0  0  0  0  5  0  0  0  0  0  0
   -2.9754    1.1217    0.0000 O   0  0  0  0  0  0  0  0  0  0  0  0
   -0.4607    1.7745    0.0000 O   0  0  0  0  0  0  0  0  0  0  0  0
    0.2932   -1.1292    0.0000 C   0  0  0  0  0  0  0  0  0  0  0  0
    1.3621   -0.0769    0.0000 C   0  0  0  0  0  0  0  0  0  0  0  0
    2.8079   -0.4764    0.0000 S   0  0  0  0  0  0  0  0  0  0  0  0
    3.8768    0.5760    0.0000 C   0  0  0  0  0  0  0  0  0  0  0  0
  2  1  1  6
  2  3  1  0
  3  4  2  0
  3  5  1  1
  2  6  1  0
  6  7  1  0
  7  8  1  0
  8  9  1  0
M  END
>  <rName>  (306) 
1-amino-3-MeS-propylphosphinicacid

>  <PQ_SYMBOL>  (306) 
1-amino-3-MeS-propylphosphinicacid

>  <FULL_NAME>  (306) 
(1-AMINO-3-METHYLSULFANYL-PROPYL)-PHOSPHINIC ACID

>  <IUPAC_CONDENSED>  (306) 
1-amino-3-MeS-propylphosphinic acid

>  <IUPAC>  (306) 
[(1R)-1-amino-3-methylsulfanyl-propyl]phosphinic acid

>  <TYPE>  (306) 
C-term cap

>  <CLASS>  (306) 
c_cap

>  <ANALOG>  (306) 
X

>  <MOL_WT>  (306) 
169.18599999999998

>  <LOGP>  (306) 
0.49129999999999996

>  <TPSA>  (306) 
63.32000000000001

>  <POPULARITY>  (306) 
6.1

>  <PROTECTED>  (306) 
FALSE

>  <SMILES>  (306) 
N[C@H]([P@@H](=O)O)CCSC

>  <INCHIKEY>  (306) 
CZRBNMUARBZMHQ-SCSAIBSYSA-N

$$$$
Met-SH
     RDKit          2D

  9  8  0  0  0  0  0  0  0  0999 V2000
    0.7616   -1.8791    0.0000 N   0  0  0  0  0  0  0  0  0  0  0  0
    0.8459   -0.3815    0.0000 C   0  0  0  0  0  0  0  0  0  0  0  0
    2.1851    0.2943    0.0000 C   0  0  0  0  0  0  0  0  0  0  0  0
    3.4399   -0.5275    0.0000 O   0  0  0  0  0  0  0  0  0  0  0  0
    2.2694    1.7919    0.0000 S   0  0  0  0  0  0  0  0  0  0  0  0
   -0.4089    0.4403    0.0000 C   0  0  0  0  0  0  0  0  0  0  0  0
   -1.7480   -0.2354    0.0000 C   0  0  0  0  0  0  0  0  0  0  0  0
   -3.0029    0.5864    0.0000 S   0  0  0  0  0  0  0  0  0  0  0  0
   -4.3420   -0.0894    0.0000 C   0  0  0  0  0  0  0  0  0  0  0  0
  2  1  1  1
  2  3  1  0
  3  4  1  0
  3  5  2  0
  2  6  1  0
  6  7  1  0
  7  8  1  0
  8  9  1  0
M  END
>  <rName>  (307) 
Met-SH

>  <PQ_SYMBOL>  (307) 
Met-SH

>  <FULL_NAME>  (307) 
(2S)-2-amino-4-(methylsulfanyl)butane-1-thiol

>  <IUPAC_CONDENSED>  (307) 
Met-SH

>  <IUPAC>  (307) 
(2S)-2-amino-4-(methylsulfanyl)-1-thioxobutan-1-ol

>  <TYPE>  (307) 
C-term cap

>  <CLASS>  (307) 
c_cap

>  <ANALOG>  (307) 
X

>  <MOL_WT>  (307) 
165.28300000000002

>  <LOGP>  (307) 
0.9522000000000002

>  <TPSA>  (307) 
46.25

>  <POPULARITY>  (307) 
22.2

>  <PROTECTED>  (307) 
FALSE

>  <SMILES>  (307) 
N[C@H](C(O)=S)CCSC

>  <INCHIKEY>  (307) 
IXNUCNJMRZVHDV-BYPYZUCNSA-N

$$$$
Ac-Pro
     RDKit          2D

 11 11  0  0  0  0  0  0  0  0999 V2000
   -1.0216   -2.1705    0.0000 O   0  0  0  0  0  0  0  0  0  0  0  0
   -1.6317   -0.8002    0.0000 C   0  0  0  0  0  0  0  0  0  0  0  0
   -3.1235   -0.6434    0.0000 C   0  0  0  0  0  0  0  0  0  0  0  0
   -0.7500    0.4133    0.0000 N   0  0  0  0  0  0  0  0  0  0  0  0
    0.7500    0.4133    0.0000 C   0  0  0  0  0  0  0  0  0  0  0  0
    1.2135    1.8399    0.0000 C   0  0  0  0  0  0  0  0  0  0  0  0
   -0.0000    2.7216    0.0000 C   0  0  0  0  0  0  0  0  0  0  0  0
   -1.2135    1.8399    0.0000 C   0  0  0  0  0  0  0  0  0  0  0  0
    1.6317   -0.8002    0.0000 C   0  0  0  0  0  0  0  0  0  0  0  0
    3.1235   -0.6434    0.0000 O   0  0  0  0  0  0  0  0  0  0  0  0
    1.0216   -2.1705    0.0000 O   0  0  0  0  0  0  0  0  0  0  0  0
  1  2  2  0
  2  3  1  0
  2  4  1  0
  4  5  1  0
  5  6  1  0
  6  7  1  0
  7  8  1  0
  5  9  1  1
  9 10  2  0
  9 11  1  0
  8  4  1  0
M  END
>  <rName>  (308) 
Ac-Pro

>  <PQ_SYMBOL>  (308) 
Ac-Pro

>  <FULL_NAME>  (308) 
1-ACETYL-L-PROLINE

>  <IUPAC_CONDENSED>  (308) 
Ac-Pro

>  <IUPAC>  (308) 
(2S)-1-(acetyl)pyrrolidine-2-carboxylic acid

>  <TYPE>  (308) 
N-term cap

>  <CLASS>  (308) 
n_cap

>  <ANALOG>  (308) 
X

>  <MOL_WT>  (308) 
157.169

>  <LOGP>  (308) 
0.08190000000000003

>  <TPSA>  (308) 
57.61

>  <POPULARITY>  (308) 
25.7

>  <PROTECTED>  (308) 
FALSE

>  <SMILES>  (308) 
O=C(C)N1[C@@H](CCC1)C(=O)O

>  <INCHIKEY>  (308) 
GNMSLDIYJOSUSW-LURJTMIESA-N

$$$$
vinyl-Pro
     RDKit          2D

 10 10  0  0  0  0  0  0  0  0999 V2000
   -2.9143   -1.6284    0.0000 C   0  0  0  0  0  0  0  0  0  0  0  0
   -1.4299   -1.4129    0.0000 C   0  0  0  0  0  0  0  0  0  0  0  0
   -0.8743   -0.0196    0.0000 N   0  0  0  0  0  0  0  0  0  0  0  0
    0.5795    0.3498    0.0000 C   0  0  0  0  0  0  0  0  0  0  0  0
    0.6774    1.8466    0.0000 C   0  0  0  0  0  0  0  0  0  0  0  0
   -0.7159    2.4022    0.0000 C   0  0  0  0  0  0  0  0  0  0  0  0
   -1.6749    1.2488    0.0000 C   0  0  0  0  0  0  0  0  0  0  0  0
    1.7329   -0.6092    0.0000 C   0  0  0  0  0  0  0  0  0  0  0  0
    3.1402   -0.0898    0.0000 O   0  0  0  0  0  0  0  0  0  0  0  0
    1.4791   -2.0876    0.0000 O   0  0  0  0  0  0  0  0  0  0  0  0
  1  2  2  0
  2  3  1  0
  3  4  1  0
  4  5  1  0
  5  6  1  0
  6  7  1  0
  4  8  1  1
  8  9  2  0
  8 10  1  0
  7  3  1  0
M  END
>  <rName>  (309) 
vinyl-Pro

>  <PQ_SYMBOL>  (309) 
vinyl-Pro

>  <FULL_NAME>  (309) 
1-ethenyl-L-proline

>  <IUPAC_CONDENSED>  (309) 
vinyl-Pro

>  <IUPAC>  (309) 
(2S)-1-ethenylpyrrolidine-2-carboxylic acid

>  <TYPE>  (309) 
N-term cap

>  <CLASS>  (309) 
n_cap

>  <ANALOG>  (309) 
X

>  <MOL_WT>  (309) 
141.17000000000002

>  <LOGP>  (309) 
0.6788999999999998

>  <TPSA>  (309) 
40.540000000000006

>  <POPULARITY>  (309) 
11

>  <PROTECTED>  (309) 
FALSE

>  <SMILES>  (309) 
C=CN1[C@@H](CCC1)C(=O)O

>  <INCHIKEY>  (309) 
XOTIFFOSEYHBBR-LURJTMIESA-N

$$$$
Ac-D-Pro
     RDKit          2D

 11 11  0  0  0  0  0  0  0  0999 V2000
   -1.0216   -2.1705    0.0000 O   0  0  0  0  0  0  0  0  0  0  0  0
   -1.6317   -0.8002    0.0000 C   0  0  0  0  0  0  0  0  0  0  0  0
   -3.1235   -0.6434    0.0000 C   0  0  0  0  0  0  0  0  0  0  0  0
   -0.7500    0.4133    0.0000 N   0  0  0  0  0  0  0  0  0  0  0  0
    0.7500    0.4133    0.0000 C   0  0  0  0  0  0  0  0  0  0  0  0
    1.2135    1.8399    0.0000 C   0  0  0  0  0  0  0  0  0  0  0  0
   -0.0000    2.7216    0.0000 C   0  0  0  0  0  0  0  0  0  0  0  0
   -1.2135    1.8399    0.0000 C   0  0  0  0  0  0  0  0  0  0  0  0
    1.6317   -0.8002    0.0000 C   0  0  0  0  0  0  0  0  0  0  0  0
    3.1235   -0.6434    0.0000 O   0  0  0  0  0  0  0  0  0  0  0  0
    1.0216   -2.1705    0.0000 O   0  0  0  0  0  0  0  0  0  0  0  0
  1  2  2  0
  2  3  1  0
  2  4  1  0
  4  5  1  0
  5  6  1  0
  6  7  1  0
  7  8  1  0
  5  9  1  6
  9 10  2  0
  9 11  1  0
  8  4  1  0
M  END
>  <rName>  (310) 
Ac-D-Pro

>  <PQ_SYMBOL>  (310) 
Ac-D-Pro

>  <FULL_NAME>  (310) 
N-ACETYL-D-PROLINE

>  <IUPAC_CONDENSED>  (310) 
Ac-D-Pro

>  <IUPAC>  (310) 
(2R)-1-(acetyl)pyrrolidine-2-carboxylic acid

>  <TYPE>  (310) 
N-term cap

>  <CLASS>  (310) 
n_cap

>  <ANALOG>  (310) 
X

>  <MOL_WT>  (310) 
157.169

>  <LOGP>  (310) 
0.08190000000000003

>  <TPSA>  (310) 
57.61

>  <POPULARITY>  (310) 
12.3

>  <PROTECTED>  (310) 
FALSE

>  <SMILES>  (310) 
O=C(C)N1[C@H](CCC1)C(=O)O

>  <INCHIKEY>  (310) 
GNMSLDIYJOSUSW-ZCFIWIBFSA-N

$$$$
AspNHOH-phosphoadenosine
     RDKit          2D

 32 34  0  0  0  0  0  0  0  0999 V2000
    7.2061   -1.0666    0.0000 N   0  0  0  0  0  0  0  0  0  0  0  0
    6.2251    0.0682    0.0000 C   0  0  0  0  0  0  0  0  0  0  0  0
    6.7174    1.4851    0.0000 C   0  0  0  0  0  0  0  0  0  0  0  0
    8.1906    1.7673    0.0000 C   0  0  0  0  0  0  0  0  0  0  0  0
    9.1716    0.6325    0.0000 O   0  0  0  0  0  0  0  0  0  0  0  0
    8.6829    3.1842    0.0000 N   0  0  0  0  0  0  0  0  0  0  0  0
   10.1561    3.4664    0.0000 O   0  0  0  0  0  0  0  0  0  0  0  0
    4.7519   -0.2140    0.0000 C   0  0  0  0  0  0  0  0  0  0  0  0
    3.7709    0.9208    0.0000 O   0  0  0  0  0  0  0  0  0  0  0  0
    4.2597   -1.6309    0.0000 O   0  0  0  0  0  0  0  0  0  0  0  0
    2.7864   -1.9131    0.0000 P   0  0  0  0  0  5  0  0  0  0  0  0
    2.5043   -0.4398    0.0000 O   0  0  0  0  0  0  0  0  0  0  0  0
    3.0686   -3.3863    0.0000 O   0  0  0  0  0  0  0  0  0  0  0  0
    1.3132   -2.1952    0.0000 O   0  0  0  0  0  0  0  0  0  0  0  0
    0.3322   -1.0604    0.0000 C   0  0  0  0  0  0  0  0  0  0  0  0
   -1.1410   -1.3426    0.0000 C   0  0  0  0  0  0  0  0  0  0  0  0
   -2.2352   -0.3166    0.0000 O   0  0  0  0  0  0  0  0  0  0  0  0
   -3.5491   -1.0402    0.0000 C   0  0  0  0  0  0  0  0  0  0  0  0
   -3.2670   -2.5134    0.0000 C   0  0  0  0  0  0  0  0  0  0  0  0
   -4.2930   -3.6076    0.0000 O   0  0  0  0  0  0  0  0  0  0  0  0
   -1.7787   -2.7003    0.0000 C   0  0  0  0  0  0  0  0  0  0  0  0
   -1.0551   -4.0142    0.0000 O   0  0  0  0  0  0  0  0  0  0  0  0
   -4.9068   -0.4025    0.0000 N   0  0  0  0  0  0  0  0  0  0  0  0
   -5.1890    1.0707    0.0000 C   0  0  0  0  0  0  0  0  0  0  0  0
   -4.2830    2.2662    0.0000 N   0  0  0  0  0  0  0  0  0  0  0  0
   -4.8653    3.6485    0.0000 C   0  0  0  0  0  0  0  0  0  0  0  0
   -6.3536    3.8355    0.0000 N   0  0  0  0  0  0  0  0  0  0  0  0
   -7.2596    2.6400    0.0000 C   0  0  0  0  0  0  0  0  0  0  0  0
   -8.7479    2.8269    0.0000 N   0  0  0  0  0  0  0  0  0  0  0  0
   -6.6773    1.2576    0.0000 C   0  0  0  0  0  0  0  0  0  0  0  0
   -7.3150   -0.1001    0.0000 N   0  0  0  0  0  0  0  0  0  0  0  0
   -6.2208   -1.1261    0.0000 C   0  0  0  0  0  0  0  0  0  0  0  0
  2  1  1  6
  2  3  1  0
  3  4  1  0
  4  5  2  0
  4  6  1  0
  6  7  1  0
  2  8  1  0
  8  9  2  0
  8 10  1  0
 10 11  1  0
 11 12  2  0
 11 13  1  1
 11 14  1  0
 14 15  1  0
 16 15  1  6
 16 17  1  0
 17 18  1  0
 18 19  1  0
 19 20  1  1
 19 21  1  0
 21 22  1  1
 18 23  1  6
 23 24  1  0
 24 25  2  0
 25 26  1  0
 26 27  2  0
 27 28  1  0
 28 29  1  0
 28 30  2  0
 30 31  1  0
 31 32  2  0
 30 24  1  0
 32 23  1  0
 21 16  1  0
M  END
>  <rName>  (311) 
AspNHOH-phosphoadenosine

>  <PQ_SYMBOL>  (311) 
AspNHOH-phosphoadenosine

>  <FULL_NAME>  (311) 
5'-O-[(R)-{[(2S)-2-amino-4-(hydroxyamino)-4-oxobutanoyl]oxy}(hydroxy)phosphoryl]adenosine

>  <IUPAC_CONDENSED>  (311) 
Asp(NHOH)-phosphoadenosine

>  <IUPAC>  (311) 
[[(2R,3S,4R,5R)-5-(6-aminopurin-9-yl)-3,4-dihydroxy-oxolan-2-yl]methoxy-hydroxy-phosphoryl] (2S)-2-amino-4-(hydroxyamino)-4-oxo-butanoate

>  <TYPE>  (311) 
C-term cap

>  <CLASS>  (311) 
c_cap

>  <ANALOG>  (311) 
X

>  <MOL_WT>  (311) 
477.3270000000001

>  <LOGP>  (311) 
-3.089299999999998

>  <TPSA>  (311) 
267.49

>  <POPULARITY>  (311) 
3.2

>  <PROTECTED>  (311) 
FALSE

>  <SMILES>  (311) 
N[C@@H](CC(=O)NO)C(=O)O[P@](=O)(O)OC[C@H]3O[C@H]([C@H](O)[C@@H]3O)n2c1ncnc(N)c1nc2

>  <INCHIKEY>  (311) 
LNQDDLRGTAFRLA-VWJPMABRSA-N

$$$$
Phe-NH2
     RDKit          2D

 12 12  0  0  0  0  0  0  0  0999 V2000
   -1.2391    1.6805    0.0000 N   0  0  0  0  0  0  0  0  0  0  0  0
   -1.6184    0.2292    0.0000 C   0  0  0  0  0  0  0  0  0  0  0  0
   -3.0649   -0.1679    0.0000 C   0  0  0  0  0  0  0  0  0  0  0  0
   -3.4442   -1.6191    0.0000 O   0  0  0  0  0  0  0  0  0  0  0  0
   -4.1321    0.8862    0.0000 N   0  0  0  0  0  0  0  0  0  0  0  0
   -0.5513   -0.8249    0.0000 C   0  0  0  0  0  0  0  0  0  0  0  0
    0.8952   -0.4278    0.0000 C   0  0  0  0  0  0  0  0  0  0  0  0
    1.2745    1.0235    0.0000 C   0  0  0  0  0  0  0  0  0  0  0  0
    2.7210    1.4206    0.0000 C   0  0  0  0  0  0  0  0  0  0  0  0
    3.7882    0.3665    0.0000 C   0  0  0  0  0  0  0  0  0  0  0  0
    3.4088   -1.0848    0.0000 C   0  0  0  0  0  0  0  0  0  0  0  0
    1.9624   -1.4819    0.0000 C   0  0  0  0  0  0  0  0  0  0  0  0
  2  1  1  1
  2  3  1  0
  3  4  2  0
  3  5  1  0
  2  6  1  0
  6  7  1  0
  7  8  2  0
  8  9  1  0
  9 10  2  0
 10 11  1  0
 11 12  2  0
 12  7  1  0
M  END
>  <rName>  (312) 
Phe-NH2

>  <PQ_SYMBOL>  (312) 
Phe-NH2

>  <FULL_NAME>  (312) 
PHENYLALANINE AMIDE

>  <IUPAC_CONDENSED>  (312) 
Phe-NH2

>  <IUPAC>  (312) 
(2S)-2-amino-3-phenylpropanamide

>  <TYPE>  (312) 
C-term cap

>  <CLASS>  (312) 
c_cap

>  <ANALOG>  (312) 
X

>  <MOL_WT>  (312) 
164.208

>  <LOGP>  (312) 
0.04170000000000007

>  <TPSA>  (312) 
69.11

>  <POPULARITY>  (312) 
26.6

>  <PROTECTED>  (312) 
FALSE

>  <SMILES>  (312) 
N[C@H](C(=O)N)Cc1ccccc1

>  <INCHIKEY>  (312) 
OBSIQMZKFXFYLV-QMMMGPOBSA-N

$$$$
Nle-NH2
     RDKit          2D

  9  8  0  0  0  0  0  0  0  0999 V2000
    0.7616   -1.8791    0.0000 N   0  0  0  0  0  0  0  0  0  0  0  0
    0.8459   -0.3815    0.0000 C   0  0  0  0  0  0  0  0  0  0  0  0
    2.1851    0.2943    0.0000 C   0  0  0  0  0  0  0  0  0  0  0  0
    2.2694    1.7919    0.0000 O   0  0  0  0  0  0  0  0  0  0  0  0
    3.4399   -0.5275    0.0000 N   0  0  0  0  0  0  0  0  0  0  0  0
   -0.4089    0.4403    0.0000 C   0  0  0  0  0  0  0  0  0  0  0  0
   -1.7480   -0.2354    0.0000 C   0  0  0  0  0  0  0  0  0  0  0  0
   -3.0029    0.5864    0.0000 C   0  0  0  0  0  0  0  0  0  0  0  0
   -4.3420   -0.0894    0.0000 C   0  0  0  0  0  0  0  0  0  0  0  0
  2  1  1  1
  2  3  1  0
  3  4  2  0
  3  5  1  0
  2  6  1  0
  6  7  1  0
  7  8  1  0
  8  9  1  0
M  END
>  <rName>  (313) 
Nle-NH2

>  <PQ_SYMBOL>  (313) 
Nle-NH2

>  <FULL_NAME>  (313) 
NORLEUCINE AMIDE

>  <IUPAC_CONDENSED>  (313) 
Nle-NH2

>  <IUPAC>  (313) 
(2S)-2-aminohexanamide

>  <TYPE>  (313) 
C-term cap

>  <CLASS>  (313) 
c_cap

>  <ANALOG>  (313) 
X

>  <MOL_WT>  (313) 
130.191

>  <LOGP>  (313) 
-0.010800000000000587

>  <TPSA>  (313) 
69.11

>  <POPULARITY>  (313) 
16.6

>  <PROTECTED>  (313) 
FALSE

>  <SMILES>  (313) 
N[C@H](C(=O)N)CCCC

>  <INCHIKEY>  (313) 
YTIHIRCOUAPRCS-YFKPBYRVSA-N

$$$$
1-amino-pentylphosphonicacid
     RDKit          2D

 10  9  0  0  0  0  0  0  0  0999 V2000
   -2.0131   -1.9145    0.0000 N   0  0  0  0  0  0  0  0  0  0  0  0
   -0.9756   -0.8310    0.0000 C   0  0  0  0  0  0  0  0  0  0  0  0
   -1.3952    0.6091    0.0000 P   0  0  0  0  0  0  0  0  0  0  0  0
   -1.8147    2.0492    0.0000 O   0  0  0  0  0  0  0  0  0  0  0  0
   -2.8353    0.1895    0.0000 O   0  0  0  0  0  0  0  0  0  0  0  0
    0.0450    1.0286    0.0000 O   0  0  0  0  0  0  0  0  0  0  0  0
    0.4813   -1.1878    0.0000 C   0  0  0  0  0  0  0  0  0  0  0  0
    1.5188   -0.1044    0.0000 C   0  0  0  0  0  0  0  0  0  0  0  0
    2.9757   -0.4611    0.0000 C   0  0  0  0  0  0  0  0  0  0  0  0
    4.0131    0.6223    0.0000 C   0  0  0  0  0  0  0  0  0  0  0  0
  2  1  1  6
  2  3  1  0
  3  4  2  0
  3  5  1  0
  3  6  1  0
  2  7  1  0
  7  8  1  0
  8  9  1  0
  9 10  1  0
M  END
>  <rName>  (314) 
1-amino-pentylphosphonicacid

>  <PQ_SYMBOL>  (314) 
1-amino-pentylphosphonicacid

>  <FULL_NAME>  (314) 
(1-AMINO-PENTYL)-PHOSPHONIC ACID

>  <IUPAC_CONDENSED>  (314) 
1-amino-pentylphosphonic acid

>  <IUPAC>  (314) 
(1R)-1-(dihydroxyphosphoryl)pentan-1-amine

>  <TYPE>  (314) 
C-term cap

>  <CLASS>  (314) 
c_cap

>  <ANALOG>  (314) 
X

>  <MOL_WT>  (314) 
167.14499999999995

>  <LOGP>  (314) 
0.6391

>  <TPSA>  (314) 
83.55000000000001

>  <POPULARITY>  (314) 
10.8

>  <PROTECTED>  (314) 
FALSE

>  <SMILES>  (314) 
N[C@H](P(=O)(O)O)CCCC

>  <INCHIKEY>  (314) 
NXTPDFMZKSLVRK-RXMQYKEDSA-N

$$$$
Leu-NH2
     RDKit          2D

  9  8  0  0  0  0  0  0  0  0999 V2000
    0.2826   -1.7410    0.0000 N   0  0  0  0  0  0  0  0  0  0  0  0
    0.5402   -0.2633    0.0000 C   0  0  0  0  0  0  0  0  0  0  0  0
    1.9487    0.2525    0.0000 C   0  0  0  0  0  0  0  0  0  0  0  0
    2.2062    1.7302    0.0000 O   0  0  0  0  0  0  0  0  0  0  0  0
    3.0997   -0.7094    0.0000 N   0  0  0  0  0  0  0  0  0  0  0  0
   -0.6108    0.6986    0.0000 C   0  0  0  0  0  0  0  0  0  0  0  0
   -2.0193    0.1828    0.0000 C   0  0  0  0  0  0  0  0  0  0  0  0
   -3.1703    1.1447    0.0000 C   0  0  0  0  0  0  0  0  0  0  0  0
   -2.2769   -1.2950    0.0000 C   0  0  0  0  0  0  0  0  0  0  0  0
  2  1  1  1
  2  3  1  0
  3  4  2  0
  3  5  1  0
  2  6  1  0
  6  7  1  0
  7  8  1  0
  7  9  1  0
M  END
>  <rName>  (315) 
Leu-NH2

>  <PQ_SYMBOL>  (315) 
Leu-NH2

>  <FULL_NAME>  (315) 
L-leucinamide

>  <IUPAC_CONDENSED>  (315) 
Leu-NH2

>  <IUPAC>  (315) 
(2S)-2-amino-4-methylpentanamide

>  <TYPE>  (315) 
C-term cap

>  <CLASS>  (315) 
c_cap

>  <ANALOG>  (315) 
X

>  <MOL_WT>  (315) 
130.19099999999997

>  <LOGP>  (315) 
-0.15490000000000048

>  <TPSA>  (315) 
69.11

>  <POPULARITY>  (315) 
20.7

>  <PROTECTED>  (315) 
FALSE

>  <SMILES>  (315) 
N[C@H](C(=O)N)CC(C)C

>  <INCHIKEY>  (315) 
FORGMRSGVSYZQR-YFKPBYRVSA-N

$$$$
His1-tetrazol-5-yl-al
     RDKit          2D

 15 16  0  0  0  0  0  0  0  0999 V2000
   -3.6056    1.3111    0.0000 N   0  0  0  0  0  0  0  0  0  0  0  0
   -3.6450   -0.1884    0.0000 C   0  0  0  0  0  0  0  0  0  0  0  0
   -4.9633   -0.9040    0.0000 C   0  0  0  0  0  0  0  0  0  0  0  0
   -6.2422   -0.1201    0.0000 O   0  0  0  0  0  0  0  0  0  0  0  0
   -2.3661   -0.9723    0.0000 C   0  0  0  0  0  0  0  0  0  0  0  0
   -1.0478   -0.2567    0.0000 C   0  0  0  0  0  0  0  0  0  0  0  0
    0.3060   -0.9026    0.0000 C   0  0  0  0  0  0  0  0  0  0  0  0
    1.3386    0.1853    0.0000 N   0  0  0  0  0  0  0  0  0  0  0  0
    0.6230    1.5036    0.0000 C   0  0  0  0  0  0  0  0  0  0  0  0
   -0.8519    1.2305    0.0000 N   0  0  0  0  0  0  0  0  0  0  0  0
    2.8258   -0.0106    0.0000 C   0  0  0  0  0  0  0  0  0  0  0  0
    3.8584    1.0773    0.0000 N   0  0  0  0  0  0  0  0  0  0  0  0
    5.2122    0.4314    0.0000 N   0  0  0  0  0  0  0  0  0  0  0  0
    5.0163   -1.0557    0.0000 N   0  0  0  0  0  0  0  0  0  0  0  0
    3.5414   -1.3289    0.0000 N   0  0  0  0  0  0  0  0  0  0  0  0
  2  1  1  1
  2  3  1  0
  3  4  2  0
  2  5  1  0
  5  6  1  0
  6  7  2  0
  7  8  1  0
  8  9  1  0
  9 10  2  0
  8 11  1  0
 11 12  2  0
 12 13  1  0
 13 14  1  0
 14 15  2  0
 15 11  1  0
 10  6  1  0
M  END
>  <rName>  (316) 
His1-tetrazol-5-yl-al

>  <PQ_SYMBOL>  (316) 
His1-tetrazol-5-yl-al

>  <FULL_NAME>  (316) 
(2S)-2-AMINO-3-[1-(1H-TETRAAZOL-5-YL)-1H-IMIDAZOL-4-YL]PROPANAL

>  <IUPAC_CONDENSED>  (316) 
His(1-tetrazol-5-yl)-al

>  <IUPAC>  (316) 
(2S)-2-amino-3-(1-(2H-tetrazol-5-yl)-1H-imidazol-4-yl)propanal

>  <TYPE>  (316) 
C-term cap

>  <CLASS>  (316) 
c_cap

>  <ANALOG>  (316) 
X

>  <MOL_WT>  (316) 
207.197

>  <LOGP>  (316) 
-1.5459

>  <TPSA>  (316) 
115.37

>  <POPULARITY>  (316) 
3.3

>  <PROTECTED>  (316) 
FALSE

>  <SMILES>  (316) 
N[C@H](C=O)Cc2cn(cn2)c1n[nH]nn1

>  <INCHIKEY>  (316) 
OOFNCFXOGMDAEN-YFKPBYRVSA-N

$$$$
Q0001
     RDKit          2D

 39 41  0  0  0  0  0  0  0  0999 V2000
   -6.7641   -5.0721    0.0000 N   0  0  0  0  0  0  0  0  0  0  0  0
   -5.2668   -5.1622    0.0000 C   0  0  0  0  0  0  0  0  0  0  0  0
   -4.5961   -6.5039    0.0000 C   0  0  0  0  0  0  0  0  0  0  0  0
   -5.4228   -7.7556    0.0000 O   0  0  0  0  0  0  0  0  0  0  0  0
   -4.4401   -3.9105    0.0000 C   0  0  0  0  0  0  0  0  0  0  0  0
   -5.1108   -2.5688    0.0000 O   0  0  0  0  0  0  0  0  0  0  0  0
   -4.2841   -1.3171    0.0000 C   0  0  0  0  0  0  0  0  0  0  0  0
   -2.7868   -1.4072    0.0000 O   0  0  0  0  0  0  0  0  0  0  0  0
   -4.9547    0.0246    0.0000 C   0  0  0  0  0  0  0  0  0  0  0  0
   -6.4520    0.1147    0.0000 C   0  0  0  0  0  0  0  0  0  0  0  0
   -7.1227    1.4564    0.0000 O   0  0  0  0  0  0  0  0  0  0  0  0
   -7.2787   -1.1370    0.0000 C   0  0  0  0  0  0  0  0  0  0  0  0
   -4.1281    1.2762    0.0000 C   0  0  0  0  0  0  0  0  0  0  0  0
   -2.6296    1.3432    0.0000 C   0  0  0  0  0  0  0  0  0  0  0  0
   -1.6946    0.1702    0.0000 C   0  0  0  0  0  0  0  0  0  0  0  0
   -2.2302    2.7890    0.0000 C   0  0  0  0  0  0  0  0  0  0  0  0
   -3.4818    3.6157    0.0000 C   0  0  0  0  0  0  0  0  0  0  0  0
   -4.6548    2.6807    0.0000 N   0  0  0  0  0  0  0  0  0  0  0  0
   -3.5488    5.1142    0.0000 C   0  0  0  0  0  0  0  0  0  0  0  0
   -2.2845    5.9214    0.0000 O   0  0  0  0  0  0  0  0  0  0  0  0
   -4.8800    5.8055    0.0000 O   0  0  0  0  0  0  0  0  0  0  0  0
   -0.8257    3.3157    0.0000 S   0  0  0  0  0  0  0  0  0  0  0  0
    0.3327    2.3628    0.0000 C   0  0  0  0  0  0  0  0  0  0  0  0
    1.7845    2.7398    0.0000 C   0  0  0  0  0  0  0  0  0  0  0  0
    2.5918    1.4755    0.0000 C   0  0  0  0  0  0  0  0  0  0  0  0
    1.6388    0.3171    0.0000 N   0  0  0  0  0  0  0  0  0  0  0  0
    0.2426    0.8655    0.0000 C   0  0  0  0  0  0  0  0  0  0  0  0
    4.0890    1.3855    0.0000 C   0  0  0  0  0  0  0  0  0  0  0  0
    4.9157    2.6371    0.0000 O   0  0  0  0  0  0  0  0  0  0  0  0
    4.7597    0.0437    0.0000 N   0  0  0  0  0  0  0  0  0  0  0  0
    6.2570   -0.0464    0.0000 C   0  0  0  0  0  0  0  0  0  0  0  0
    6.9276   -1.3881    0.0000 C   0  0  0  0  0  0  0  0  0  0  0  0
    8.4249   -1.4782    0.0000 C   0  0  0  0  0  0  0  0  0  0  0  0
    9.2516   -0.2265    0.0000 C   0  0  0  0  0  0  0  0  0  0  0  0
    8.5809    1.1152    0.0000 C   0  0  0  0  0  0  0  0  0  0  0  0
    7.0836    1.2053    0.0000 C   0  0  0  0  0  0  0  0  0  0  0  0
    9.0956   -2.8199    0.0000 C   0  0  0  0  0  0  0  0  0  0  0  0
   10.5928   -2.9100    0.0000 O   0  0  0  0  0  0  0  0  0  0  0  0
    8.2689   -4.0715    0.0000 O   0  0  0  0  0  0  0  0  0  0  0  0
  2  1  1  6
  2  3  1  0
  3  4  2  0
  2  5  1  0
  5  6  1  0
  6  7  1  0
  7  8  2  0
  9  7  1  6
  9 10  1  0
 10 11  1  0
 10 12  1  1
  9 13  1  0
 13 14  1  0
 14 15  1  6
 14 16  1  0
 16 17  1  0
 17 18  2  0
 17 19  1  0
 19 20  2  0
 19 21  1  0
 16 22  1  0
 23 22  1  1
 23 24  1  0
 24 25  1  0
 25 26  1  0
 26 27  1  0
 25 28  1  1
 28 29  2  0
 28 30  1  0
 30 31  1  0
 31 32  2  0
 32 33  1  0
 33 34  2  0
 34 35  1  0
 35 36  2  0
 33 37  1  0
 37 38  2  0
 37 39  1  0
 36 31  1  0
 27 23  1  0
 13 18  1  6
M  END
>  <rName>  (317) 
Q0001

>  <PQ_SYMBOL>  (317) 
Q0001

>  <FULL_NAME>  (317) 
(2~{S},3~{R})-2-[(2~{S},3~{R})-1-[(2~{R})-2-azanyl-3-oxidanylidene-propoxy]-3-oxidanyl-1-oxidanylidene-butan-2-yl]-4-[(3~{S},5~{S})-5-[(3-carboxyphenyl)carbamoyl]pyrrolidin-3-yl]sulfanyl-3-methyl-3,4-dihydro-2~{H}-pyrrole-5-carboxylic acid

>  <IUPAC_CONDENSED>  (317) 


>  <IUPAC>  (317) 
(4R,5S)-5-((2S,3R)-1-(((2R)-2-amino-3-oxopropyl)oxy)-3-hydroxy-1-oxobutan-2-yl)-3-(((3S,5S)-5-((3-((hydroxy)carbonyl)phenyl)carbamoyl)pyrrolidin-3-yl)sulfanyl)-4-methyl-1-azacyclopent-1-ene-2-carboxylic acid

>  <TYPE>  (317) 
C-term cap

>  <CLASS>  (317) 
c_cap

>  <ANALOG>  (317) 
X

>  <MOL_WT>  (317) 
564.6170000000003

>  <LOGP>  (317) 
-0.2340999999999938

>  <TPSA>  (317) 
217.70999999999998

>  <POPULARITY>  (317) 
3.2

>  <PROTECTED>  (317) 
FALSE

>  <SMILES>  (317) 
N[C@@H](C=O)COC(=O)[C@H]([C@H](O)C)[C@H]3[C@@H](C)C(C(=N3)C(=O)O)S[C@H]2C[C@H](NC2)C(=O)Nc1cc(ccc1)C(=O)O

>  <INCHIKEY>  (317) 
PARUKYQAUVQKHU-QCPKZJAKSA-N

$$$$
NMe-aThr
     RDKit          2D

  9  8  0  0  0  0  0  0  0  0999 V2000
   -0.7500    1.5877    0.0000 N   0  0  0  0  0  0  0  0  0  0  0  0
   -2.2500    1.5877    0.0000 C   0  0  0  0  0  0  0  0  0  0  0  0
    0.0000    0.2887    0.0000 C   0  0  0  0  0  0  0  0  0  0  0  0
    1.5000    0.2887    0.0000 C   0  0  0  0  0  0  0  0  0  0  0  0
    2.2500    1.5877    0.0000 O   0  0  0  0  0  0  0  0  0  0  0  0
    2.2500   -1.0104    0.0000 C   0  0  0  0  0  0  0  0  0  0  0  0
   -0.7500   -1.0104    0.0000 C   0  0  0  0  0  0  0  0  0  0  0  0
   -2.2500   -1.0104    0.0000 O   0  0  0  0  0  0  0  0  0  0  0  0
   -0.0000   -2.3094    0.0000 O   0  0  0  0  0  0  0  0  0  0  0  0
  1  2  1  0
  3  1  1  1
  3  4  1  0
  4  5  1  0
  4  6  1  1
  3  7  1  0
  7  8  2  0
  7  9  1  0
M  END
>  <rName>  (318) 
NMe-aThr

>  <PQ_SYMBOL>  (318) 
NMe-aThr

>  <FULL_NAME>  (318) 
N-methyl-L-allothreonine

>  <IUPAC_CONDENSED>  (318) 
Me-aThr

>  <IUPAC>  (318) 
(2S,3S)-3-hydroxy-2-(methylamino)butanoic acid

>  <TYPE>  (318) 
N-term cap

>  <CLASS>  (318) 
n_cap

>  <ANALOG>  (318) 
X

>  <MOL_WT>  (318) 
133.147

>  <LOGP>  (318) 
-0.9602000000000004

>  <TPSA>  (318) 
69.56

>  <POPULARITY>  (318) 
7.6

>  <PROTECTED>  (318) 
FALSE

>  <SMILES>  (318) 
N(C)[C@@H]([C@@H](O)C)C(=O)O

>  <INCHIKEY>  (318) 
CCAIIPMIAFGKSI-IMJSIDKUSA-N

$$$$
NHBn_3CF3
     RDKit          2D

 12 12  0  0  0  0  0  0  0  0999 V2000
    3.0893   -2.1367    0.0000 N   0  0  0  0  0  0  0  0  0  0  0  0
    3.1251   -0.6371    0.0000 C   0  0  0  0  0  0  0  0  0  0  0  0
    1.8442    0.1436    0.0000 C   0  0  0  0  0  0  0  0  0  0  0  0
    0.5277   -0.5752    0.0000 C   0  0  0  0  0  0  0  0  0  0  0  0
   -0.7531    0.2055    0.0000 C   0  0  0  0  0  0  0  0  0  0  0  0
   -0.7174    1.7051    0.0000 C   0  0  0  0  0  0  0  0  0  0  0  0
    0.5992    2.4239    0.0000 C   0  0  0  0  0  0  0  0  0  0  0  0
    1.8800    1.6432    0.0000 C   0  0  0  0  0  0  0  0  0  0  0  0
   -2.0696   -0.5134    0.0000 C   0  0  0  0  0  0  0  0  0  0  0  0
   -3.3862   -1.2322    0.0000 F   0  0  0  0  0  0  0  0  0  0  0  0
   -2.7885    0.8032    0.0000 F   0  0  0  0  0  0  0  0  0  0  0  0
   -1.3508   -1.8299    0.0000 F   0  0  0  0  0  0  0  0  0  0  0  0
  1  2  1  0
  2  3  1  0
  3  4  2  0
  4  5  1  0
  5  6  2  0
  6  7  1  0
  7  8  2  0
  5  9  1  0
  9 10  1  0
  9 11  1  0
  9 12  1  0
  8  3  1  0
M  END
>  <rName>  (319) 
NHBn_3CF3

>  <PQ_SYMBOL>  (319) 
NHBn_3CF3

>  <FULL_NAME>  (319) 
[3-(trifluoromethyl)phenyl]methanamine

>  <IUPAC_CONDENSED>  (319) 
NHBn(3-CF3)

>  <IUPAC>  (319) 
1-(3-(trifluoromethyl)phenyl)methanamine

>  <TYPE>  (319) 
C-term cap

>  <CLASS>  (319) 
c_cap

>  <ANALOG>  (319) 
X

>  <MOL_WT>  (319) 
175.15299999999993

>  <LOGP>  (319) 
2.1641000000000004

>  <TPSA>  (319) 
26.02

>  <POPULARITY>  (319) 
14.5

>  <PROTECTED>  (319) 
FALSE

>  <SMILES>  (319) 
NCc1cc(ccc1)C(F)(F)F

>  <INCHIKEY>  (319) 
YKNZTUQUXUXTLE-UHFFFAOYSA-N

$$$$
Nva_imidazol2yl
     RDKit          2D

 15 15  0  0  0  0  0  0  0  0999 V2000
   -3.4042    1.7797    0.0000 N   0  0  0  0  0  0  0  0  0  0  0  0
   -3.5113    0.2835    0.0000 C   0  0  0  0  0  0  0  0  0  0  0  0
   -2.2690   -0.5572    0.0000 C   0  0  0  0  0  0  0  0  0  0  0  0
   -0.9198    0.0982    0.0000 C   0  0  0  0  0  0  0  0  0  0  0  0
    0.3224   -0.7426    0.0000 C   0  0  0  0  0  0  0  0  0  0  0  0
    1.6717   -0.0872    0.0000 C   0  0  0  0  0  0  0  0  0  0  0  0
    2.9950   -0.7935    0.0000 N   0  0  0  0  0  0  0  0  0  0  0  0
    4.0756    0.2468    0.0000 C   0  0  0  0  0  0  0  0  0  0  0  0
    3.4202    1.5960    0.0000 C   0  0  0  0  0  0  0  0  0  0  0  0
    1.9345    1.3896    0.0000 N   0  0  0  0  0  0  0  0  0  0  0  0
    5.5524   -0.0160    0.0000 C   0  0  0  0  0  0  0  0  0  0  0  0
    6.0632   -1.4264    0.0000 O   0  0  0  0  0  0  0  0  0  0  0  0
   -4.8605   -0.3719    0.0000 C   0  0  0  0  0  0  0  0  0  0  0  0
   -4.9675   -1.8681    0.0000 O   0  0  0  0  0  0  0  0  0  0  0  0
   -6.1027    0.4689    0.0000 O   0  0  0  0  0  0  0  0  0  0  0  0
  2  1  1  1
  2  3  1  0
  3  4  1  0
  4  5  1  0
  5  6  1  0
  6  7  2  0
  7  8  1  0
  8  9  2  0
  9 10  1  0
  8 11  1  0
 11 12  1  0
  2 13  1  0
 13 14  2  0
 13 15  1  0
 10  6  1  0
M  END
>  <rName>  (320) 
Nva_imidazol2yl

>  <PQ_SYMBOL>  (320) 
Nva_imidazol2yl

>  <FULL_NAME>  (320) 
5-[5-(hydroxymethyl)-1H-imidazol-2-yl]-L-norvaline

>  <IUPAC_CONDENSED>  (320) 
Nva(imidazol-2-yl)

>  <IUPAC>  (320) 
(2S)-2-amino-5-(4-(hydroxymethyl)-1H-imidazol-2-yl)pentanoic acid

>  <TYPE>  (320) 
N-term cap

>  <CLASS>  (320) 
n_cap

>  <ANALOG>  (320) 
X

>  <MOL_WT>  (320) 
213.237

>  <LOGP>  (320) 
-0.36340000000000044

>  <TPSA>  (320) 
112.23

>  <POPULARITY>  (320) 
0

>  <PROTECTED>  (320) 
FALSE

>  <SMILES>  (320) 
N[C@@H](CCCc1(nc(c[nH]1)CO))C(=O)O

>  <INCHIKEY>  (320) 
LQZCDDAMPJTCPF-ZETCQYMHSA-N

$$$$
Phe-ol
     RDKit          2D

 11 11  0  0  0  0  0  0  0  0999 V2000
   -1.7008    1.3667    0.0000 N   0  0  0  0  0  0  0  0  0  0  0  0
   -1.9298   -0.1157    0.0000 C   0  0  0  0  0  0  0  0  0  0  0  0
   -3.3282   -0.6586    0.0000 C   0  0  0  0  0  0  0  0  0  0  0  0
   -4.4974    0.2810    0.0000 O   0  0  0  0  0  0  0  0  0  0  0  0
   -0.7606   -1.0553    0.0000 C   0  0  0  0  0  0  0  0  0  0  0  0
    0.6378   -0.5125    0.0000 C   0  0  0  0  0  0  0  0  0  0  0  0
    0.8669    0.9699    0.0000 C   0  0  0  0  0  0  0  0  0  0  0  0
    2.2652    1.5127    0.0000 C   0  0  0  0  0  0  0  0  0  0  0  0
    3.4345    0.5731    0.0000 C   0  0  0  0  0  0  0  0  0  0  0  0
    3.2054   -0.9093    0.0000 C   0  0  0  0  0  0  0  0  0  0  0  0
    1.8070   -1.4521    0.0000 C   0  0  0  0  0  0  0  0  0  0  0  0
  2  1  1  1
  2  3  1  0
  3  4  1  0
  2  5  1  0
  5  6  1  0
  6  7  2  0
  7  8  1  0
  8  9  2  0
  9 10  1  0
 10 11  2  0
 11  6  1  0
M  END
>  <rName>  (321) 
Phe-ol

>  <PQ_SYMBOL>  (321) 
Phe-ol

>  <FULL_NAME>  (321) 
L-PHENYLALANINOL

>  <IUPAC_CONDENSED>  (321) 
Phe-ol

>  <IUPAC>  (321) 
(2S)-2-amino-3-phenylpropan-1-ol

>  <TYPE>  (321) 
C-term cap

>  <CLASS>  (321) 
c_cap

>  <ANALOG>  (321) 
X

>  <MOL_WT>  (321) 
151.209

>  <LOGP>  (321) 
0.5486999999999999

>  <TPSA>  (321) 
46.25

>  <POPULARITY>  (321) 
27.6

>  <PROTECTED>  (321) 
FALSE

>  <SMILES>  (321) 
N[C@H](CO)Cc1ccccc1

>  <INCHIKEY>  (321) 
STVVMTBJNDTZBF-VIFPVBQESA-N

$$$$
Piv
     RDKit          2D

  7  6  0  0  0  0  0  0  0  0999 V2000
   -0.6429    1.5000    0.0000 C   0  0  0  0  0  0  0  0  0  0  0  0
   -0.6429   -0.0000    0.0000 C   0  0  0  0  0  0  0  0  0  0  0  0
   -0.6429   -1.5000    0.0000 C   0  0  0  0  0  0  0  0  0  0  0  0
   -2.1429   -0.0000    0.0000 C   0  0  0  0  0  0  0  0  0  0  0  0
    0.8571    0.0000    0.0000 C   0  0  0  0  0  0  0  0  0  0  0  0
    1.6071    1.2990    0.0000 O   0  0  0  0  0  0  0  0  0  0  0  0
    1.6071   -1.2990    0.0000 O   0  0  0  0  0  0  0  0  0  0  0  0
  1  2  1  0
  2  3  1  0
  2  4  1  0
  2  5  1  0
  5  6  2  0
  5  7  1  0
M  END
>  <rName>  (322) 
Piv

>  <PQ_SYMBOL>  (322) 
Piv

>  <FULL_NAME>  (322) 
PIVALIC ACID

>  <IUPAC_CONDENSED>  (322) 
Piv

>  <IUPAC>  (322) 
2,2-dimethylpropanoic acid

>  <TYPE>  (322) 
N-term cap

>  <CLASS>  (322) 
n_cap

>  <ANALOG>  (322) 
X

>  <MOL_WT>  (322) 
102.13299999999998

>  <LOGP>  (322) 
1.1171

>  <TPSA>  (322) 
37.3

>  <POPULARITY>  (322) 
24.2

>  <PROTECTED>  (322) 
FALSE

>  <SMILES>  (322) 
CC(C)(C)C(=O)O

>  <INCHIKEY>  (322) 
IUGYQRQAERSCNH-UHFFFAOYSA-N

$$$$
CysSPr-al
     RDKit          2D

 10  9  0  0  0  0  0  0  0  0999 V2000
   -2.4047    1.5516    0.0000 N   0  0  0  0  0  0  0  0  0  0  0  0
   -2.3425    0.0529    0.0000 C   0  0  0  0  0  0  0  0  0  0  0  0
   -3.6093   -0.7504    0.0000 C   0  0  0  0  0  0  0  0  0  0  0  0
   -4.9383   -0.0549    0.0000 O   0  0  0  0  0  0  0  0  0  0  0  0
   -1.0134   -0.6426    0.0000 C   0  0  0  0  0  0  0  0  0  0  0  0
    0.2534    0.1607    0.0000 S   0  0  0  0  0  0  0  0  0  0  0  0
    1.5824   -0.5348    0.0000 S   0  0  0  0  0  0  0  0  0  0  0  0
    2.8492    0.2685    0.0000 C   0  0  0  0  0  0  0  0  0  0  0  0
    4.1782   -0.4270    0.0000 C   0  0  0  0  0  0  0  0  0  0  0  0
    5.4450    0.3762    0.0000 C   0  0  0  0  0  0  0  0  0  0  0  0
  2  1  1  1
  2  3  1  0
  3  4  2  0
  2  5  1  0
  5  6  1  0
  6  7  1  0
  7  8  1  0
  8  9  1  0
  9 10  1  0
M  END
>  <rName>  (323) 
CysSPr-al

>  <PQ_SYMBOL>  (323) 
CysSPr-al

>  <FULL_NAME>  (323) 
S,S-PROPYLTHIOCYSTEINE

>  <IUPAC_CONDENSED>  (323) 
Cys(SPr)-al

>  <IUPAC>  (323) 
(2R)-2-amino-3-(propylsulfanylsulfanyl)propanal

>  <TYPE>  (323) 
C-term cap

>  <CLASS>  (323) 
c_cap

>  <ANALOG>  (323) 
X

>  <MOL_WT>  (323) 
179.30999999999997

>  <LOGP>  (323) 
1.3039999999999998

>  <TPSA>  (323) 
43.09

>  <POPULARITY>  (323) 
14.4

>  <PROTECTED>  (323) 
FALSE

>  <SMILES>  (323) 
N[C@H](C=O)CSSCCC

>  <INCHIKEY>  (323) 
JOUZYBMKOXDVCY-ZCFIWIBFSA-N

$$$$
D-Pro-NH2
     RDKit          2D

  8  8  0  0  0  0  0  0  0  0999 V2000
   -0.8342   -1.2135    0.0000 N   0  0  0  0  0  0  0  0  0  0  0  0
    0.0475   -0.0000    0.0000 C   0  0  0  0  0  0  0  0  0  0  0  0
   -0.8342    1.2135    0.0000 C   0  0  0  0  0  0  0  0  0  0  0  0
   -2.2608    0.7500    0.0000 C   0  0  0  0  0  0  0  0  0  0  0  0
   -2.2608   -0.7500    0.0000 C   0  0  0  0  0  0  0  0  0  0  0  0
    1.5475    0.0000    0.0000 C   0  0  0  0  0  0  0  0  0  0  0  0
    2.2975   -1.2990    0.0000 N   0  0  0  0  0  0  0  0  0  0  0  0
    2.2975    1.2990    0.0000 O   0  0  0  0  0  0  0  0  0  0  0  0
  1  2  1  0
  2  3  1  0
  3  4  1  0
  4  5  1  0
  2  6  1  6
  6  7  1  0
  6  8  2  0
  5  1  1  0
M  END
>  <rName>  (324) 
D-Pro-NH2

>  <PQ_SYMBOL>  (324) 
D-Pro-NH2

>  <FULL_NAME>  (324) 
D-PROLINAMIDE

>  <IUPAC_CONDENSED>  (324) 
D-Pro-NH2

>  <IUPAC>  (324) 
(2R)-pyrrolidine-2-carboxamide

>  <TYPE>  (324) 
C-term cap

>  <CLASS>  (324) 
c_cap

>  <ANALOG>  (324) 
X

>  <MOL_WT>  (324) 
114.14800000000001

>  <LOGP>  (324) 
-0.7763000000000002

>  <TPSA>  (324) 
55.12

>  <POPULARITY>  (324) 
17.5

>  <PROTECTED>  (324) 
FALSE

>  <SMILES>  (324) 
N1[C@H](CCC1)C(N)=O

>  <INCHIKEY>  (324) 
VLJNHYLEOZPXFW-SCSAIBSYSA-N

$$$$
22-diOH-propanoyl
     RDKit          2D

  7  6  0  0  0  0  0  0  0  0999 V2000
   -0.6429   -1.5000    0.0000 O   0  0  0  0  0  0  0  0  0  0  0  0
   -0.6429    0.0000    0.0000 C   0  0  0  0  0  0  0  0  0  0  0  0
   -0.6429    1.5000    0.0000 O   0  0  0  0  0  0  0  0  0  0  0  0
   -2.1429    0.0000    0.0000 C   0  0  0  0  0  0  0  0  0  0  0  0
    0.8571   -0.0000    0.0000 C   0  0  0  0  0  0  0  0  0  0  0  0
    1.6071   -1.2990    0.0000 O   0  0  0  0  0  0  0  0  0  0  0  0
    1.6071    1.2990    0.0000 O   0  0  0  0  0  0  0  0  0  0  0  0
  1  2  1  0
  2  3  1  0
  2  4  1  0
  2  5  1  0
  5  6  2  0
  5  7  1  0
M  END
>  <rName>  (325) 
22-diOH-propanoyl

>  <PQ_SYMBOL>  (325) 
22-diOH-propanoyl

>  <FULL_NAME>  (325) 
2,2-bis(oxidanyl)propanoic acid

>  <IUPAC_CONDENSED>  (325) 
2,2-diOH-propanoyl

>  <IUPAC>  (325) 
2,2-dihydroxypropanoic acid

>  <TYPE>  (325) 
N-term cap

>  <CLASS>  (325) 
n_cap

>  <ANALOG>  (325) 
X

>  <MOL_WT>  (325) 
106.07699999999998

>  <LOGP>  (325) 
-1.2282

>  <TPSA>  (325) 
77.76

>  <POPULARITY>  (325) 
15.3

>  <PROTECTED>  (325) 
FALSE

>  <SMILES>  (325) 
OC(O)(C)C(=O)O

>  <INCHIKEY>  (325) 
HPQUMJNDQVOTAZ-UHFFFAOYSA-N

$$$$
4-CH2OH-Bz-bAla
     RDKit          2D

 16 16  0  0  0  0  0  0  0  0999 V2000
   -6.4868    0.0545    0.0000 O   0  0  0  0  0  0  0  0  0  0  0  0
   -5.3898   -0.9685    0.0000 C   0  0  0  0  0  0  0  0  0  0  0  0
   -3.9554   -0.5300    0.0000 C   0  0  0  0  0  0  0  0  0  0  0  0
   -3.6179    0.9316    0.0000 C   0  0  0  0  0  0  0  0  0  0  0  0
   -2.1834    1.3701    0.0000 C   0  0  0  0  0  0  0  0  0  0  0  0
   -1.0864    0.3471    0.0000 C   0  0  0  0  0  0  0  0  0  0  0  0
   -1.4239   -1.1145    0.0000 C   0  0  0  0  0  0  0  0  0  0  0  0
   -2.8584   -1.5530    0.0000 C   0  0  0  0  0  0  0  0  0  0  0  0
    0.3480    0.7856    0.0000 C   0  0  0  0  0  0  0  0  0  0  0  0
    0.6855    2.2471    0.0000 O   0  0  0  0  0  0  0  0  0  0  0  0
    1.4450   -0.2374    0.0000 N   0  0  0  0  0  0  0  0  0  0  0  0
    2.8795    0.2011    0.0000 C   0  0  0  0  0  0  0  0  0  0  0  0
    3.9765   -0.8220    0.0000 C   0  0  0  0  0  0  0  0  0  0  0  0
    5.4110   -0.3834    0.0000 C   0  0  0  0  0  0  0  0  0  0  0  0
    5.7485    1.0781    0.0000 O   0  0  0  0  0  0  0  0  0  0  0  0
    6.5080   -1.4065    0.0000 O   0  0  0  0  0  0  0  0  0  0  0  0
  1  2  1  0
  2  3  1  0
  3  4  1  0
  4  5  2  0
  5  6  1  0
  6  7  2  0
  7  8  1  0
  6  9  1  0
  9 10  2  0
  9 11  1  0
 11 12  1  0
 12 13  1  0
 13 14  1  0
 14 15  2  0
 14 16  1  0
  8  3  2  0
M  END
>  <rName>  (326) 
4-CH2OH-Bz-bAla

>  <PQ_SYMBOL>  (326) 
4-CH2OH-Bz-bAla

>  <FULL_NAME>  (326) 
N-[4-(hydroxymethyl)benzoyl]-beta-alanine

>  <IUPAC_CONDENSED>  (326) 
4-CH2OH-Bz-bAla

>  <IUPAC>  (326) 
3-(4-(hydroxymethyl)phenylcarbonylamino)propanoic acid

>  <TYPE>  (326) 
N-term cap

>  <CLASS>  (326) 
n_cap

>  <ANALOG>  (326) 
X

>  <MOL_WT>  (326) 
223.22799999999995

>  <LOGP>  (326) 
0.38339999999999996

>  <TPSA>  (326) 
86.63000000000001

>  <POPULARITY>  (326) 
8.6

>  <PROTECTED>  (326) 
FALSE

>  <SMILES>  (326) 
OCc1ccc(cc1)C(=O)NCCC(=O)O

>  <INCHIKEY>  (326) 
CXBCVBTXSPPVAG-UHFFFAOYSA-N

$$$$
S-2-aminoglutarimide
     RDKit          2D

  9  9  0  0  0  0  0  0  0  0999 V2000
    2.6931   -0.9264    0.0000 N   0  0  0  0  0  0  0  0  0  0  0  0
    1.2325   -0.5848    0.0000 C   0  0  0  0  0  0  0  0  0  0  0  0
    0.2064   -1.6788    0.0000 C   0  0  0  0  0  0  0  0  0  0  0  0
   -1.2542   -1.3372    0.0000 C   0  0  0  0  0  0  0  0  0  0  0  0
   -1.6886    0.0985    0.0000 C   0  0  0  0  0  0  0  0  0  0  0  0
   -0.6625    1.1926    0.0000 N   0  0  0  0  0  0  0  0  0  0  0  0
    0.7981    0.8510    0.0000 C   0  0  0  0  0  0  0  0  0  0  0  0
    1.8243    1.9450    0.0000 O   0  0  0  0  0  0  0  0  0  0  0  0
   -3.1492    0.4401    0.0000 O   0  0  0  0  0  0  0  0  0  0  0  0
  2  1  1  1
  2  3  1  0
  3  4  1  0
  4  5  1  0
  5  6  1  0
  6  7  1  0
  7  8  2  0
  5  9  2  0
  7  2  1  0
M  END
>  <rName>  (327) 
S-2-aminoglutarimide

>  <PQ_SYMBOL>  (327) 
S-2-aminoglutarimide

>  <FULL_NAME>  (327) 
L-2-Aminoglutarimide

>  <IUPAC_CONDENSED>  (327) 
S-2-aminoglutarimide

>  <IUPAC>  (327) 
(3S)-3-aminopiperidine-2,6-dione

>  <TYPE>  (327) 
C-term cap

>  <CLASS>  (327) 
c_cap

>  <ANALOG>  (327) 
X

>  <MOL_WT>  (327) 
128.131

>  <LOGP>  (327) 
-1.2497

>  <TPSA>  (327) 
72.19

>  <POPULARITY>  (327) 
10.9

>  <PROTECTED>  (327) 
FALSE

>  <SMILES>  (327) 
N[C@H]1CCC(NC1=O)=O

>  <INCHIKEY>  (327) 
NPWMTBZSRRLQNJ-VKHMYHEASA-N

$$$$
dimethylcatechol-Cys-gemdiol
     RDKit          2D

 17 17  0  0  0  0  0  0  0  0999 V2000
   -3.6881   -1.8757    0.0000 N   0  0  0  0  0  0  0  0  0  0  0  0
   -3.4155   -0.4007    0.0000 C   0  0  0  0  0  0  0  0  0  0  0  0
   -4.5566    0.5729    0.0000 C   0  0  0  0  0  0  0  0  0  0  0  0
   -5.9703    0.0714    0.0000 O   0  0  0  0  0  0  0  0  0  0  0  0
   -4.2840    2.0479    0.0000 O   0  0  0  0  0  0  0  0  0  0  0  0
   -2.0018    0.1007    0.0000 C   0  0  0  0  0  0  0  0  0  0  0  0
   -0.8607   -0.8728    0.0000 S   0  0  0  0  0  0  0  0  0  0  0  0
    0.5530   -0.3714    0.0000 C   0  0  0  0  0  0  0  0  0  0  0  0
    0.8256    1.1036    0.0000 C   0  0  0  0  0  0  0  0  0  0  0  0
    2.2393    1.6051    0.0000 C   0  0  0  0  0  0  0  0  0  0  0  0
    2.5119    3.0801    0.0000 C   0  0  0  0  0  0  0  0  0  0  0  0
    3.3804    0.6315    0.0000 C   0  0  0  0  0  0  0  0  0  0  0  0
    3.1079   -0.8435    0.0000 C   0  0  0  0  0  0  0  0  0  0  0  0
    4.2490   -1.8171    0.0000 O   0  0  0  0  0  0  0  0  0  0  0  0
    1.6942   -1.3450    0.0000 C   0  0  0  0  0  0  0  0  0  0  0  0
    1.4216   -2.8200    0.0000 O   0  0  0  0  0  0  0  0  0  0  0  0
    4.7941    1.1330    0.0000 C   0  0  0  0  0  0  0  0  0  0  0  0
  2  1  1  6
  2  3  1  0
  3  4  1  0
  3  5  1  0
  2  6  1  0
  6  7  1  0
  7  8  1  0
  8  9  1  0
  9 10  2  0
 10 11  1  0
 10 12  1  0
 12 13  2  0
 13 14  1  0
 13 15  1  0
 15 16  1  0
 12 17  1  0
 15  8  2  0
M  END
>  <rName>  (328) 
dimethylcatechol-Cys-gemdiol

>  <PQ_SYMBOL>  (328) 
dimethylcatechol-Cys-gemdiol

>  <FULL_NAME>  (328) 
3,4-dimethylcatechol cysteine

>  <IUPAC_CONDENSED>  (328) 
dimethylcatechol-Cys-gemdiol

>  <IUPAC>  (328) 
6-(((2R)-2-amino-3,3-dihydroxypropyl)sulfanyl)-3,4-dimethylbenzene-1,2-diol

>  <TYPE>  (328) 
C-term cap

>  <CLASS>  (328) 
c_cap

>  <ANALOG>  (328) 
X

>  <MOL_WT>  (328) 
259.327

>  <LOGP>  (328) 
0.44474

>  <TPSA>  (328) 
106.94000000000001

>  <POPULARITY>  (328) 
3.2

>  <PROTECTED>  (328) 
FALSE

>  <SMILES>  (328) 
N[C@H](C(O)O)CSc1cc(C)c(c(O)c1O)C

>  <INCHIKEY>  (328) 
XKYPIZZJDXSTGC-ZETCQYMHSA-N

$$$$
D-Met-NH2
     RDKit          2D

  9  8  0  0  0  0  0  0  0  0999 V2000
    0.7616   -1.8791    0.0000 N   0  0  0  0  0  0  0  0  0  0  0  0
    0.8459   -0.3815    0.0000 C   0  0  0  0  0  0  0  0  0  0  0  0
    2.1851    0.2943    0.0000 C   0  0  0  0  0  0  0  0  0  0  0  0
    2.2694    1.7919    0.0000 O   0  0  0  0  0  0  0  0  0  0  0  0
    3.4399   -0.5275    0.0000 N   0  0  0  0  0  0  0  0  0  0  0  0
   -0.4089    0.4403    0.0000 C   0  0  0  0  0  0  0  0  0  0  0  0
   -1.7480   -0.2354    0.0000 C   0  0  0  0  0  0  0  0  0  0  0  0
   -3.0029    0.5864    0.0000 S   0  0  0  0  0  0  0  0  0  0  0  0
   -4.3420   -0.0894    0.0000 C   0  0  0  0  0  0  0  0  0  0  0  0
  2  1  1  6
  2  3  1  0
  3  4  2  0
  3  5  1  0
  2  6  1  0
  6  7  1  0
  7  8  1  0
  8  9  1  0
M  END
>  <rName>  (329) 
D-Met-NH2

>  <PQ_SYMBOL>  (329) 
D-Met-NH2

>  <FULL_NAME>  (329) 
D-methioninamide

>  <IUPAC_CONDENSED>  (329) 
D-Met-NH2

>  <IUPAC>  (329) 
(2R)-2-amino-4-(methylsulfanyl)butanamide

>  <TYPE>  (329) 
C-term cap

>  <CLASS>  (329) 
c_cap

>  <ANALOG>  (329) 
X

>  <MOL_WT>  (329) 
148.231

>  <LOGP>  (329) 
-0.4479000000000002

>  <TPSA>  (329) 
69.11

>  <POPULARITY>  (329) 
11.2

>  <PROTECTED>  (329) 
FALSE

>  <SMILES>  (329) 
N[C@@H](C(=O)N)CCSC

>  <INCHIKEY>  (329) 
GSYTVXOARWSQSV-SCSAIBSYSA-N

$$$$
ProM-17
     RDKit          2D

 19 20  0  0  0  0  0  0  0  0999 V2000
   -3.2781   -1.4265    0.0000 N   0  0  0  0  0  0  0  0  0  0  0  0
   -2.1692   -0.4163    0.0000 C   0  0  0  0  0  0  0  0  0  0  0  0
   -0.7153   -0.7852    0.0000 C   0  0  0  0  0  0  0  0  0  0  0  0
   -0.4168   -2.2552    0.0000 O   0  0  0  0  0  0  0  0  0  0  0  0
    0.4797    0.1215    0.0000 N   0  0  0  0  0  0  0  0  0  0  0  0
    0.5158    1.6211    0.0000 C   0  0  0  0  0  0  0  0  0  0  0  0
   -0.6341    2.5843    0.0000 C   0  0  0  0  0  0  0  0  0  0  0  0
   -2.1041    2.2858    0.0000 C   0  0  0  0  0  0  0  0  0  0  0  0
   -2.7873    0.9504    0.0000 C   0  0  0  0  0  0  0  0  0  0  0  0
   -4.2781    0.7850    0.0000 C   0  0  0  0  0  0  0  0  0  0  0  0
   -4.5814   -0.6841    0.0000 C   0  0  0  0  0  0  0  0  0  0  0  0
    1.8825    2.2392    0.0000 C   0  0  0  0  0  0  0  0  0  0  0  0
    3.1012    1.3646    0.0000 C   0  0  0  0  0  0  0  0  0  0  0  0
    4.4679    1.9826    0.0000 C   0  0  0  0  0  0  0  0  0  0  0  0
    2.9531   -0.1281    0.0000 C   0  0  0  0  0  0  0  0  0  0  0  0
    1.8150   -0.5617    0.0000 C   0  0  0  0  0  0  0  0  0  0  0  0
    1.8911   -2.0598    0.0000 C   0  0  0  0  0  0  0  0  0  0  0  0
    0.6317   -2.8746    0.0000 O   0  0  0  0  0  0  0  0  0  0  0  0
    3.2265   -2.7429    0.0000 O   0  0  0  0  0  0  0  0  0  0  0  0
  2  1  1  1
  2  3  1  0
  3  4  2  0
  3  5  1  0
  5  6  1  0
  6  7  1  0
  7  8  2  0
  8  9  1  0
  9 10  1  6
 10 11  1  0
  6 12  1  1
 12 13  1  0
 13 14  1  0
 13 15  1  0
  5 16  1  0
 16 17  1  0
 17 18  2  0
 17 19  1  0
  9  2  1  0
 11  1  1  0
M  END
>  <rName>  (330) 
ProM-17

>  <PQ_SYMBOL>  (330) 
ProM-17

>  <FULL_NAME>  (330) 
ProM-17

>  <IUPAC_CONDENSED>  (330) 
ProM-17

>  <IUPAC>  (330) 
2-((1S,4R,7R)-4-(2-methylpropyl)-2-oxo-3,10-diazabicyclo[5.3.0]dec-5-en-3-yl)acetic acid

>  <TYPE>  (330) 
N-term cap

>  <CLASS>  (330) 
n_cap

>  <ANALOG>  (330) 
X

>  <MOL_WT>  (330) 
266.3409999999999

>  <LOGP>  (330) 
0.8621999999999992

>  <TPSA>  (330) 
69.64

>  <POPULARITY>  (330) 
0.3

>  <PROTECTED>  (330) 
FALSE

>  <SMILES>  (330) 
N2[C@@H]1C(=O)N([C@@H](C=C[C@H]1CC2)CC(C)C)CC(=O)O

>  <INCHIKEY>  (330) 
NOUQCZCUPJZTJH-GVXVVHGQSA-N

$$$$
Pro_4Striazol1yl_4Ph_4F
     RDKit          2D

 20 22  0  0  0  0  0  0  0  0999 V2000
   -4.0481    1.7207    0.0000 N   0  0  0  0  0  0  0  0  0  0  0  0
   -4.6125    0.3309    0.0000 C   0  0  0  0  0  0  0  0  0  0  0  0
   -3.4652   -0.6354    0.0000 C   0  0  0  0  0  0  0  0  0  0  0  0
   -2.1917    0.1572    0.0000 C   0  0  0  0  0  0  0  0  0  0  0  0
   -2.5519    1.6133    0.0000 C   0  0  0  0  0  0  0  0  0  0  0  0
   -0.8019   -0.4072    0.0000 N   0  0  0  0  0  0  0  0  0  0  0  0
    0.4716    0.3854    0.0000 C   0  0  0  0  0  0  0  0  0  0  0  0
    1.6189   -0.5809    0.0000 C   0  0  0  0  0  0  0  0  0  0  0  0
    1.0545   -1.9706    0.0000 N   0  0  0  0  0  0  0  0  0  0  0  0
   -0.4417   -1.8633    0.0000 N   0  0  0  0  0  0  0  0  0  0  0  0
    3.0750   -0.2206    0.0000 C   0  0  0  0  0  0  0  0  0  0  0  0
    4.1150   -1.3015    0.0000 C   0  0  0  0  0  0  0  0  0  0  0  0
    5.5711   -0.9412    0.0000 C   0  0  0  0  0  0  0  0  0  0  0  0
    5.9872    0.4999    0.0000 C   0  0  0  0  0  0  0  0  0  0  0  0
    7.4433    0.8602    0.0000 F   0  0  0  0  0  0  0  0  0  0  0  0
    4.9472    1.5808    0.0000 C   0  0  0  0  0  0  0  0  0  0  0  0
    3.4911    1.2206    0.0000 C   0  0  0  0  0  0  0  0  0  0  0  0
   -6.0686   -0.0294    0.0000 C   0  0  0  0  0  0  0  0  0  0  0  0
   -6.4847   -1.4705    0.0000 O   0  0  0  0  0  0  0  0  0  0  0  0
   -7.1086    1.0515    0.0000 O   0  0  0  0  0  0  0  0  0  0  0  0
  1  2  1  0
  2  3  1  0
  3  4  1  0
  4  5  1  0
  4  6  1  1
  6  7  1  0
  7  8  2  0
  8  9  1  0
  9 10  2  0
  8 11  1  0
 11 12  1  0
 12 13  2  0
 13 14  1  0
 14 15  1  0
 14 16  2  0
 16 17  1  0
  2 18  1  1
 18 19  2  0
 18 20  1  0
  5  1  1  0
 10  6  1  0
 17 11  2  0
M  END
>  <rName>  (331) 
Pro_4Striazol1yl_4Ph_4F

>  <PQ_SYMBOL>  (331) 
Pro_4Striazol1yl_4Ph_4F

>  <FULL_NAME>  (331) 
(2S,4S)-4-[4-(4-fluorophenyl)-1,2,3-triazol-1-yl]pyrrolidine-2-carboxylic acid

>  <IUPAC_CONDENSED>  (331) 
Pro(4S-triazol-1-yl(4-Ph(4-F)))

>  <IUPAC>  (331) 
(2S,4S)-4-(4-(4-fluorophenyl)-1H-1,2,3-triazol-1-yl)pyrrolidine-2-carboxylic acid

>  <TYPE>  (331) 
N-term cap

>  <CLASS>  (331) 
n_cap

>  <ANALOG>  (331) 
X

>  <MOL_WT>  (331) 
276.271

>  <LOGP>  (331) 
1.0717999999999996

>  <TPSA>  (331) 
80.04

>  <POPULARITY>  (331) 
1.5

>  <PROTECTED>  (331) 
FALSE

>  <SMILES>  (331) 
N1[C@@H](C[C@@H](C1)n2(cc(nn2)c3(ccc(F)cc3)))C(=O)O

>  <INCHIKEY>  (331) 
ZOARAQYNIFGSNI-QWRGUYRKSA-N

$$$$
Bz-D-Ala
     RDKit          2D

 14 14  0  0  0  0  0  0  0  0999 V2000
   -4.3921   -0.2032    0.0000 C   0  0  0  0  0  0  0  0  0  0  0  0
   -3.7598    1.1570    0.0000 C   0  0  0  0  0  0  0  0  0  0  0  0
   -2.2656    1.2895    0.0000 C   0  0  0  0  0  0  0  0  0  0  0  0
   -1.4038    0.0618    0.0000 C   0  0  0  0  0  0  0  0  0  0  0  0
   -2.0361   -1.2984    0.0000 C   0  0  0  0  0  0  0  0  0  0  0  0
   -3.5303   -1.4309    0.0000 C   0  0  0  0  0  0  0  0  0  0  0  0
    0.0903    0.1943    0.0000 C   0  0  0  0  0  0  0  0  0  0  0  0
    0.7227    1.5545    0.0000 O   0  0  0  0  0  0  0  0  0  0  0  0
    0.9521   -1.0334    0.0000 N   0  0  0  0  0  0  0  0  0  0  0  0
    2.4463   -0.9009    0.0000 C   0  0  0  0  0  0  0  0  0  0  0  0
    3.3081   -2.1286    0.0000 C   0  0  0  0  0  0  0  0  0  0  0  0
    3.0786    0.4593    0.0000 C   0  0  0  0  0  0  0  0  0  0  0  0
    2.2168    1.6870    0.0000 O   0  0  0  0  0  0  0  0  0  0  0  0
    4.5727    0.5918    0.0000 O   0  0  0  0  0  0  0  0  0  0  0  0
  1  2  2  0
  2  3  1  0
  3  4  2  0
  4  5  1  0
  5  6  2  0
  4  7  1  0
  7  8  2  0
  7  9  1  0
  9 10  1  0
 10 11  1  1
 10 12  1  0
 12 13  2  0
 12 14  1  0
  6  1  1  0
M  END
>  <rName>  (332) 
Bz-D-Ala

>  <PQ_SYMBOL>  (332) 
Bz-D-Ala

>  <FULL_NAME>  (332) 
N-BENZOYL-D-ALANINE

>  <IUPAC_CONDENSED>  (332) 
Bz-D-Ala

>  <IUPAC>  (332) 
(2R)-2-phenylcarbonylaminopropanoic acid

>  <TYPE>  (332) 
N-term cap

>  <CLASS>  (332) 
n_cap

>  <ANALOG>  (332) 
X

>  <MOL_WT>  (332) 
193.20199999999997

>  <LOGP>  (332) 
0.8895

>  <TPSA>  (332) 
66.4

>  <POPULARITY>  (332) 
12.4

>  <PROTECTED>  (332) 
FALSE

>  <SMILES>  (332) 
c1ccc(cc1)C(=O)N[C@H](C)C(=O)O

>  <INCHIKEY>  (332) 
UAQVHNZEONHPQG-SSDOTTSWSA-N

$$$$
-Ser-ol
     RDKit          2D

  6  5  0  0  0  0  0  0  0  0999 V2000
    0.0000    1.5000    0.0000 N   0  0  0  0  0  0  0  0  0  0  0  0
    0.0000    0.0000    0.0000 C   0  0  0  0  0  0  0  0  0  0  0  0
   -1.2990   -0.7500    0.0000 C   0  0  0  0  0  0  0  0  0  0  0  0
   -2.5981    0.0000    0.0000 O   0  0  0  0  0  0  0  0  0  0  0  0
    1.2990   -0.7500    0.0000 C   0  0  0  0  0  0  0  0  0  0  0  0
    2.5981   -0.0000    0.0000 O   0  0  0  0  0  0  0  0  0  0  0  0
  1  2  1  0
  2  3  1  0
  3  4  1  0
  2  5  1  0
  5  6  1  0
M  END
>  <rName>  (333) 
-Ser-ol

>  <PQ_SYMBOL>  (333) 
-Ser-ol

>  <FULL_NAME>  (333) 
2-AMINO-1,3-PROPANEDIOL

>  <IUPAC_CONDENSED>  (333) 
Ser-ol

>  <IUPAC>  (333) 
2-aminopropane-1,3-diol

>  <TYPE>  (333) 
C-term cap

>  <CLASS>  (333) 
c_cap

>  <ANALOG>  (333) 
X

>  <MOL_WT>  (333) 
91.11

>  <LOGP>  (333) 
-1.7017

>  <TPSA>  (333) 
66.48

>  <POPULARITY>  (333) 
20.3

>  <PROTECTED>  (333) 
FALSE

>  <SMILES>  (333) 
NC(CO)CO

>  <INCHIKEY>  (333) 
KJJPLEZQSCZCKE-UHFFFAOYSA-N

$$$$
Ser-NH2
     RDKit          2D

  7  6  0  0  0  0  0  0  0  0999 V2000
    0.5797   -1.7367    0.0000 N   0  0  0  0  0  0  0  0  0  0  0  0
    0.2514   -0.2730    0.0000 C   0  0  0  0  0  0  0  0  0  0  0  0
   -1.1803    0.1745    0.0000 C   0  0  0  0  0  0  0  0  0  0  0  0
   -1.5086    1.6381    0.0000 O   0  0  0  0  0  0  0  0  0  0  0  0
   -2.2837   -0.8417    0.0000 N   0  0  0  0  0  0  0  0  0  0  0  0
    1.3548    0.7431    0.0000 C   0  0  0  0  0  0  0  0  0  0  0  0
    2.7865    0.2956    0.0000 O   0  0  0  0  0  0  0  0  0  0  0  0
  2  1  1  6
  2  3  1  0
  3  4  2  0
  3  5  1  0
  2  6  1  0
  6  7  1  0
M  END
>  <rName>  (334) 
Ser-NH2

>  <PQ_SYMBOL>  (334) 
Ser-NH2

>  <FULL_NAME>  (334) 
AMINOSERINE

>  <IUPAC_CONDENSED>  (334) 
Ser-NH2

>  <IUPAC>  (334) 
(2S)-2-amino-3-hydroxypropanamide

>  <TYPE>  (334) 
C-term cap

>  <CLASS>  (334) 
c_cap

>  <ANALOG>  (334) 
X

>  <MOL_WT>  (334) 
104.109

>  <LOGP>  (334) 
-2.2087

>  <TPSA>  (334) 
89.34

>  <POPULARITY>  (334) 
24.3

>  <PROTECTED>  (334) 
FALSE

>  <SMILES>  (334) 
N[C@H](C(=O)N)CO

>  <INCHIKEY>  (334) 
MGOGKPMIZGEGOZ-REOHCLBHSA-N

$$$$
2Thz
     RDKit          2D

  8  8  0  0  0  0  0  0  0  0999 V2000
   -0.8342   -1.2135    0.0000 N   0  0  0  0  0  0  0  0  0  0  0  0
    0.0475   -0.0000    0.0000 C   0  0  0  0  0  0  0  0  0  0  0  0
   -0.8342    1.2135    0.0000 S   0  0  0  0  0  0  0  0  0  0  0  0
   -2.2608    0.7500    0.0000 C   0  0  0  0  0  0  0  0  0  0  0  0
   -2.2608   -0.7500    0.0000 C   0  0  0  0  0  0  0  0  0  0  0  0
    1.5475    0.0000    0.0000 C   0  0  0  0  0  0  0  0  0  0  0  0
    2.2975    1.2990    0.0000 O   0  0  0  0  0  0  0  0  0  0  0  0
    2.2975   -1.2990    0.0000 O   0  0  0  0  0  0  0  0  0  0  0  0
  1  2  1  0
  2  3  1  0
  3  4  1  0
  4  5  1  0
  2  6  1  1
  6  7  2  0
  6  8  1  0
  5  1  1  0
M  END
>  <rName>  (335) 
2Thz

>  <PQ_SYMBOL>  (335) 
2Thz

>  <FULL_NAME>  (335) 
(2S)-1,3-thiazolidine-2-carboxylic acid

>  <IUPAC_CONDENSED>  (335) 
2Thz

>  <IUPAC>  (335) 
(2S)-thiazolidine-2-carboxylic acid

>  <TYPE>  (335) 
N-term cap

>  <CLASS>  (335) 
n_cap

>  <ANALOG>  (335) 
X

>  <MOL_WT>  (335) 
133.172

>  <LOGP>  (335) 
-0.2665

>  <TPSA>  (335) 
49.33

>  <POPULARITY>  (335) 
11

>  <PROTECTED>  (335) 
FALSE

>  <SMILES>  (335) 
N1[C@@H](SCC1)C(=O)O

>  <INCHIKEY>  (335) 
ULSZVNJBVJWEJE-VKHMYHEASA-N

$$$$
Ac-Thr
     RDKit          2D

 11 10  0  0  0  0  0  0  0  0999 V2000
    2.2541   -0.9714    0.0000 O   0  0  0  0  0  0  0  0  0  0  0  0
    2.0795    0.5184    0.0000 C   0  0  0  0  0  0  0  0  0  0  0  0
    3.2824    1.4145    0.0000 C   0  0  0  0  0  0  0  0  0  0  0  0
    0.7020    1.1120    0.0000 N   0  0  0  0  0  0  0  0  0  0  0  0
   -0.5009    0.2159    0.0000 C   0  0  0  0  0  0  0  0  0  0  0  0
   -1.8784    0.8095    0.0000 C   0  0  0  0  0  0  0  0  0  0  0  0
   -2.0531    2.2993    0.0000 O   0  0  0  0  0  0  0  0  0  0  0  0
   -3.0813   -0.0866    0.0000 C   0  0  0  0  0  0  0  0  0  0  0  0
   -0.3263   -1.2739    0.0000 C   0  0  0  0  0  0  0  0  0  0  0  0
    1.0513   -1.8676    0.0000 O   0  0  0  0  0  0  0  0  0  0  0  0
   -1.5291   -2.1701    0.0000 O   0  0  0  0  0  0  0  0  0  0  0  0
  1  2  2  0
  2  3  1  0
  2  4  1  0
  5  4  1  6
  5  6  1  0
  6  7  1  0
  6  8  1  1
  5  9  1  0
  9 10  2  0
  9 11  1  0
M  END
>  <rName>  (336) 
Ac-Thr

>  <PQ_SYMBOL>  (336) 
Ac-Thr

>  <FULL_NAME>  (336) 
N-METHYLCARBONYLTHREONINE

>  <IUPAC_CONDENSED>  (336) 
Ac-Thr

>  <IUPAC>  (336) 
(2S,3R)-3-hydroxy-2-methylcarbonylaminobutanoic acid

>  <TYPE>  (336) 
N-term cap

>  <CLASS>  (336) 
n_cap

>  <ANALOG>  (336) 
X

>  <MOL_WT>  (336) 
161.15699999999998

>  <LOGP>  (336) 
-1.0434999999999999

>  <TPSA>  (336) 
86.63000000000001

>  <POPULARITY>  (336) 
23.9

>  <PROTECTED>  (336) 
FALSE

>  <SMILES>  (336) 
O=C(C)N[C@@H]([C@H](O)C)C(=O)O

>  <INCHIKEY>  (336) 
PEDXUVCGOLSNLQ-WUJLRWPWSA-N

$$$$
hPro3R-OH-ol
     RDKit          2D

  9  9  0  0  0  0  0  0  0  0999 V2000
   -1.0828   -1.2444    0.0000 N   0  0  0  0  0  0  0  0  0  0  0  0
   -0.3918    0.0869    0.0000 C   0  0  0  0  0  0  0  0  0  0  0  0
   -1.4444    1.1555    0.0000 C   0  0  0  0  0  0  0  0  0  0  0  0
   -2.7860    0.4846    0.0000 C   0  0  0  0  0  0  0  0  0  0  0  0
   -2.5625   -0.9986    0.0000 C   0  0  0  0  0  0  0  0  0  0  0  0
    1.0915    0.3104    0.0000 C   0  0  0  0  0  0  0  0  0  0  0  0
    1.6396    1.7067    0.0000 O   0  0  0  0  0  0  0  0  0  0  0  0
    2.0267   -0.8624    0.0000 C   0  0  0  0  0  0  0  0  0  0  0  0
    3.5099   -0.6389    0.0000 O   0  0  0  0  0  0  0  0  0  0  0  0
  1  2  1  0
  2  3  1  1
  3  4  1  0
  4  5  1  0
  2  6  1  0
  6  7  1  1
  6  8  1  0
  8  9  1  0
  5  1  1  0
M  END
>  <rName>  (337) 
hPro3R-OH-ol

>  <PQ_SYMBOL>  (337) 
hPro3R-OH-ol

>  <FULL_NAME>  (337) 
(1R)-1-[(2S)-pyrrolidin-2-yl]ethane-1,2-diol

>  <IUPAC_CONDENSED>  (337) 
hPro(3R-OH)-ol

>  <IUPAC>  (337) 
(1R)-1-((2S)-pyrrolidin-2-yl)ethane-1,2-diol

>  <TYPE>  (337) 
C-term cap

>  <CLASS>  (337) 
c_cap

>  <ANALOG>  (337) 
X

>  <MOL_WT>  (337) 
131.175

>  <LOGP>  (337) 
-0.9084000000000003

>  <TPSA>  (337) 
52.489999999999995

>  <POPULARITY>  (337) 
4

>  <PROTECTED>  (337) 
FALSE

>  <SMILES>  (337) 
N1[C@@H](CCC1)[C@@H](O)CO

>  <INCHIKEY>  (337) 
ABWTVUOTCCJBBM-WDSKDSINSA-N

$$$$
Trp-ol
     RDKit          2D

 14 15  0  0  0  0  0  0  0  0999 V2000
   -3.0130    1.2937    0.0000 N   0  0  0  0  0  0  0  0  0  0  0  0
   -2.8257   -0.1946    0.0000 C   0  0  0  0  0  0  0  0  0  0  0  0
   -4.0210   -1.1009    0.0000 C   0  0  0  0  0  0  0  0  0  0  0  0
   -5.4035   -0.5189    0.0000 O   0  0  0  0  0  0  0  0  0  0  0  0
   -1.4432   -0.7765    0.0000 C   0  0  0  0  0  0  0  0  0  0  0  0
   -0.2480    0.1298    0.0000 C   0  0  0  0  0  0  0  0  0  0  0  0
    1.1878   -0.3045    0.0000 C   0  0  0  0  0  0  0  0  0  0  0  0
    1.8258   -1.6620    0.0000 C   0  0  0  0  0  0  0  0  0  0  0  0
    3.3205   -1.7883    0.0000 C   0  0  0  0  0  0  0  0  0  0  0  0
    4.1771   -0.5570    0.0000 C   0  0  0  0  0  0  0  0  0  0  0  0
    3.5391    0.8006    0.0000 C   0  0  0  0  0  0  0  0  0  0  0  0
    2.0445    0.9269    0.0000 C   0  0  0  0  0  0  0  0  0  0  0  0
    1.1382    2.1221    0.0000 N   0  0  0  0  0  0  0  0  0  0  0  0
   -0.2787    1.6295    0.0000 C   0  0  0  0  0  0  0  0  0  0  0  0
  2  1  1  1
  2  3  1  0
  3  4  1  0
  2  5  1  0
  5  6  1  0
  6  7  1  0
  7  8  2  0
  8  9  1  0
  9 10  2  0
 10 11  1  0
 11 12  2  0
 12 13  1  0
 13 14  1  0
 12  7  1  0
 14  6  2  0
M  END
>  <rName>  (338) 
Trp-ol

>  <PQ_SYMBOL>  (338) 
Trp-ol

>  <FULL_NAME>  (338) 
TRYPTOPHANOL

>  <IUPAC_CONDENSED>  (338) 
Trp-ol

>  <IUPAC>  (338) 
(2S)-2-amino-3-(1H-indol-3-yl)propan-1-ol

>  <TYPE>  (338) 
C-term cap

>  <CLASS>  (338) 
c_cap

>  <ANALOG>  (338) 
X

>  <MOL_WT>  (338) 
190.246

>  <LOGP>  (338) 
1.03

>  <TPSA>  (338) 
62.04

>  <POPULARITY>  (338) 
11.8

>  <PROTECTED>  (338) 
FALSE

>  <SMILES>  (338) 
N[C@H](CO)Cc2c1ccccc1[nH]c2

>  <INCHIKEY>  (338) 
UDQCRUSSQAXPJY-VIFPVBQESA-N

$$$$
Trp6-NNHPh7-OH-al
     RDKit          2D

 23 25  0  0  0  0  0  0  0  0999 V2000
   -6.4041    0.7177    0.0000 N   0  0  0  0  0  0  0  0  0  0  0  0
   -5.9374   -0.7078    0.0000 C   0  0  0  0  0  0  0  0  0  0  0  0
   -6.9385   -1.8248    0.0000 C   0  0  0  0  0  0  0  0  0  0  0  0
   -8.4065   -1.5163    0.0000 O   0  0  0  0  0  0  0  0  0  0  0  0
   -4.4694   -1.0164    0.0000 C   0  0  0  0  0  0  0  0  0  0  0  0
   -3.4683    0.1006    0.0000 C   0  0  0  0  0  0  0  0  0  0  0  0
   -1.9762   -0.0527    0.0000 C   0  0  0  0  0  0  0  0  0  0  0  0
   -1.0917   -1.2643    0.0000 C   0  0  0  0  0  0  0  0  0  0  0  0
    0.3997   -1.1041    0.0000 C   0  0  0  0  0  0  0  0  0  0  0  0
    1.0067    0.2676    0.0000 C   0  0  0  0  0  0  0  0  0  0  0  0
    0.1223    1.4791    0.0000 C   0  0  0  0  0  0  0  0  0  0  0  0
    0.7292    2.8508    0.0000 O   0  0  0  0  0  0  0  0  0  0  0  0
   -1.3692    1.3190    0.0000 C   0  0  0  0  0  0  0  0  0  0  0  0
   -2.4862    2.3201    0.0000 N   0  0  0  0  0  0  0  0  0  0  0  0
   -3.7835    1.5672    0.0000 C   0  0  0  0  0  0  0  0  0  0  0  0
    2.4981    0.4278    0.0000 N   0  0  0  0  0  0  0  0  0  0  0  0
    3.3826   -0.7837    0.0000 N   0  0  0  0  0  0  0  0  0  0  0  0
    4.8740   -0.6235    0.0000 C   0  0  0  0  0  0  0  0  0  0  0  0
    5.7584   -1.8350    0.0000 C   0  0  0  0  0  0  0  0  0  0  0  0
    7.2498   -1.6748    0.0000 C   0  0  0  0  0  0  0  0  0  0  0  0
    7.8568   -0.3031    0.0000 C   0  0  0  0  0  0  0  0  0  0  0  0
    6.9724    0.9084    0.0000 C   0  0  0  0  0  0  0  0  0  0  0  0
    5.4810    0.7482    0.0000 C   0  0  0  0  0  0  0  0  0  0  0  0
  2  1  1  1
  2  3  1  0
  3  4  2  0
  2  5  1  0
  5  6  1  0
  6  7  1  0
  7  8  1  0
  8  9  2  0
  9 10  1  0
 10 11  2  0
 11 12  1  0
 11 13  1  0
 13 14  1  0
 14 15  1  0
 10 16  1  0
 16 17  1  0
 17 18  1  0
 18 19  2  0
 19 20  1  0
 20 21  2  0
 21 22  1  0
 22 23  2  0
 23 18  1  0
 13  7  2  0
 15  6  2  0
M  END
>  <rName>  (339) 
Trp6-NNHPh7-OH-al

>  <PQ_SYMBOL>  (339) 
Trp6-NNHPh7-OH-al

>  <FULL_NAME>  (339) 
TRW3-(2-AMINO-3-HYDROXY-PROPYL)-6-(N'-CYCLOHEXYL-HYDRAZINO)OCTAHYDRO-INDOL-7-OL

>  <IUPAC_CONDENSED>  (339) 
Trp(6-NNHPh,7-OH)-al

>  <IUPAC>  (339) 
(2S)-2-amino-3-(7-hydroxy-6-(phenylhydrazinyl)-1H-indol-3-yl)propanal

>  <TYPE>  (339) 
C-term cap

>  <CLASS>  (339) 
c_cap

>  <ANALOG>  (339) 
X

>  <MOL_WT>  (339) 
310.357

>  <LOGP>  (339) 
2.3811999999999998

>  <TPSA>  (339) 
103.17000000000002

>  <POPULARITY>  (339) 
5

>  <PROTECTED>  (339) 
FALSE

>  <SMILES>  (339) 
N[C@H](C=O)Cc3c2ccc(c(O)c2[nH]c3)NNc1ccccc1

>  <INCHIKEY>  (339) 
PSUOZWHAKZSNOB-LBPRGKRZSA-N

$$$$
Gly_indol2yl
     RDKit          2D

 15 16  0  0  0  0  0  0  0  0999 V2000
   -2.6183   -1.7023    0.0000 N   0  0  0  0  0  0  0  0  0  0  0  0
   -2.5622   -0.2034    0.0000 C   0  0  0  0  0  0  0  0  0  0  0  0
   -1.2360    0.4975    0.0000 C   0  0  0  0  0  0  0  0  0  0  0  0
    0.0341   -0.3006    0.0000 C   0  0  0  0  0  0  0  0  0  0  0  0
    0.1349   -1.7972    0.0000 C   0  0  0  0  0  0  0  0  0  0  0  0
    1.5895   -2.1637    0.0000 N   0  0  0  0  0  0  0  0  0  0  0  0
    2.3875   -0.8937    0.0000 C   0  0  0  0  0  0  0  0  0  0  0  0
    3.8654   -0.6369    0.0000 C   0  0  0  0  0  0  0  0  0  0  0  0
    4.3820    0.7713    0.0000 C   0  0  0  0  0  0  0  0  0  0  0  0
    3.4207    1.9228    0.0000 C   0  0  0  0  0  0  0  0  0  0  0  0
    1.9429    1.6661    0.0000 C   0  0  0  0  0  0  0  0  0  0  0  0
    1.4263    0.2578    0.0000 C   0  0  0  0  0  0  0  0  0  0  0  0
   -3.8322    0.5947    0.0000 C   0  0  0  0  0  0  0  0  0  0  0  0
   -3.7761    2.0937    0.0000 O   0  0  0  0  0  0  0  0  0  0  0  0
   -5.1584   -0.1061    0.0000 O   0  0  0  0  0  0  0  0  0  0  0  0
  1  2  1  0
  2  3  2  0
  3  4  1  0
  4  5  2  0
  5  6  1  0
  6  7  1  0
  7  8  2  0
  8  9  1  0
  9 10  2  0
 10 11  1  0
 11 12  2  0
  2 13  1  0
 13 14  2  0
 13 15  1  0
 12  4  1  0
 12  7  1  0
M  END
>  <rName>  (340) 
Gly_indol2yl

>  <PQ_SYMBOL>  (340) 
Gly_indol2yl

>  <FULL_NAME>  (340) 
(2Z)-2-amino-3-(1H-indol-3-yl)prop-2-enoic acid

>  <IUPAC_CONDENSED>  (340) 
Gly(indol-2-yl)

>  <IUPAC>  (340) 
(2Z)-2-amino-3-(1H-indol-3-yl)prop-2-enoic acid

>  <TYPE>  (340) 
N-term cap

>  <CLASS>  (340) 
n_cap

>  <ANALOG>  (340) 
X

>  <MOL_WT>  (340) 
202.213

>  <LOGP>  (340) 
1.5521

>  <TPSA>  (340) 
79.11

>  <POPULARITY>  (340) 
1.3

>  <PROTECTED>  (340) 
FALSE

>  <SMILES>  (340) 
N/C(=C\c1c[nH]c2ccccc12)C(=O)O

>  <INCHIKEY>  (340) 
HXAJMKJPBQFASJ-UITAMQMPSA-N

$$$$
Tyr-al
     RDKit          2D

 12 12  0  0  0  0  0  0  0  0999 V2000
   -2.0214    1.4003    0.0000 N   0  0  0  0  0  0  0  0  0  0  0  0
   -2.3410   -0.0652    0.0000 C   0  0  0  0  0  0  0  0  0  0  0  0
   -3.7700   -0.5213    0.0000 C   0  0  0  0  0  0  0  0  0  0  0  0
   -4.8794    0.4883    0.0000 O   0  0  0  0  0  0  0  0  0  0  0  0
   -1.2315   -1.0748    0.0000 C   0  0  0  0  0  0  0  0  0  0  0  0
    0.1975   -0.6188    0.0000 C   0  0  0  0  0  0  0  0  0  0  0  0
    0.5170    0.8468    0.0000 C   0  0  0  0  0  0  0  0  0  0  0  0
    1.9460    1.3028    0.0000 C   0  0  0  0  0  0  0  0  0  0  0  0
    3.0555    0.2932    0.0000 C   0  0  0  0  0  0  0  0  0  0  0  0
    2.7359   -1.1723    0.0000 C   0  0  0  0  0  0  0  0  0  0  0  0
    1.3069   -1.6283    0.0000 C   0  0  0  0  0  0  0  0  0  0  0  0
    4.4845    0.7493    0.0000 O   0  0  0  0  0  0  0  0  0  0  0  0
  2  1  1  1
  2  3  1  0
  3  4  2  0
  2  5  1  0
  5  6  1  0
  6  7  1  0
  7  8  2  0
  8  9  1  0
  9 10  2  0
 10 11  1  0
  9 12  1  0
 11  6  2  0
M  END
>  <rName>  (341) 
Tyr-al

>  <PQ_SYMBOL>  (341) 
Tyr-al

>  <FULL_NAME>  (341) 
TYROSINAL

>  <IUPAC_CONDENSED>  (341) 
Tyr-al

>  <IUPAC>  (341) 
(2S)-2-amino-3-(4-hydroxyphenyl)propanal

>  <TYPE>  (341) 
C-term cap

>  <CLASS>  (341) 
c_cap

>  <ANALOG>  (341) 
X

>  <MOL_WT>  (341) 
165.192

>  <LOGP>  (341) 
0.4608999999999996

>  <TPSA>  (341) 
63.32000000000001

>  <POPULARITY>  (341) 
18.7

>  <PROTECTED>  (341) 
FALSE

>  <SMILES>  (341) 
N[C@H](C=O)Cc1ccc(cc1)O

>  <INCHIKEY>  (341) 
DXGAIOIQACHYRK-QMMMGPOBSA-N

$$$$
Tyr-ol
     RDKit          2D

 12 12  0  0  0  0  0  0  0  0999 V2000
   -2.0214    1.4003    0.0000 N   0  0  0  0  0  0  0  0  0  0  0  0
   -2.3410   -0.0652    0.0000 C   0  0  0  0  0  0  0  0  0  0  0  0
   -3.7700   -0.5213    0.0000 C   0  0  0  0  0  0  0  0  0  0  0  0
   -4.8794    0.4883    0.0000 O   0  0  0  0  0  0  0  0  0  0  0  0
   -1.2315   -1.0748    0.0000 C   0  0  0  0  0  0  0  0  0  0  0  0
    0.1975   -0.6188    0.0000 C   0  0  0  0  0  0  0  0  0  0  0  0
    0.5170    0.8468    0.0000 C   0  0  0  0  0  0  0  0  0  0  0  0
    1.9460    1.3028    0.0000 C   0  0  0  0  0  0  0  0  0  0  0  0
    3.0555    0.2932    0.0000 C   0  0  0  0  0  0  0  0  0  0  0  0
    2.7359   -1.1723    0.0000 C   0  0  0  0  0  0  0  0  0  0  0  0
    1.3069   -1.6283    0.0000 C   0  0  0  0  0  0  0  0  0  0  0  0
    4.4845    0.7493    0.0000 O   0  0  0  0  0  0  0  0  0  0  0  0
  2  1  1  1
  2  3  1  0
  3  4  1  0
  2  5  1  0
  5  6  1  0
  6  7  1  0
  7  8  2  0
  8  9  1  0
  9 10  2  0
 10 11  1  0
  9 12  1  0
 11  6  2  0
M  END
>  <rName>  (342) 
Tyr-ol

>  <PQ_SYMBOL>  (342) 
Tyr-ol

>  <FULL_NAME>  (342) 
4-[(2S)-2-amino-3-hydroxypropyl]phenol

>  <IUPAC_CONDENSED>  (342) 
Tyr-ol

>  <IUPAC>  (342) 
4-((2S)-2-amino-3-hydroxypropyl)benzen-1-ol

>  <TYPE>  (342) 
C-term cap

>  <CLASS>  (342) 
c_cap

>  <ANALOG>  (342) 
X

>  <MOL_WT>  (342) 
167.208

>  <LOGP>  (342) 
0.2542999999999999

>  <TPSA>  (342) 
66.48

>  <POPULARITY>  (342) 
21.8

>  <PROTECTED>  (342) 
FALSE

>  <SMILES>  (342) 
N[C@H](CO)Cc1ccc(cc1)O

>  <INCHIKEY>  (342) 
DBLDQZASZZMNSL-QMMMGPOBSA-N

$$$$
Cyspyrimid-2-yl5-I-al
     RDKit          2D

 13 13  0  0  0  0  0  0  0  0999 V2000
   -3.5538   -1.4927    0.0000 N   0  0  0  0  0  0  0  0  0  0  0  0
   -3.1362   -0.0520    0.0000 C   0  0  0  0  0  0  0  0  0  0  0  0
   -4.1751    1.0300    0.0000 C   0  0  0  0  0  0  0  0  0  0  0  0
   -5.6316    0.6712    0.0000 O   0  0  0  0  0  0  0  0  0  0  0  0
   -1.6798    0.3067    0.0000 C   0  0  0  0  0  0  0  0  0  0  0  0
   -0.6409   -0.7753    0.0000 S   0  0  0  0  0  0  0  0  0  0  0  0
    0.8156   -0.4166    0.0000 C   0  0  0  0  0  0  0  0  0  0  0  0
    1.2332    1.0241    0.0000 N   0  0  0  0  0  0  0  0  0  0  0  0
    2.6897    1.3828    0.0000 C   0  0  0  0  0  0  0  0  0  0  0  0
    3.7286    0.3008    0.0000 C   0  0  0  0  0  0  0  0  0  0  0  0
    3.3110   -1.1399    0.0000 C   0  0  0  0  0  0  0  0  0  0  0  0
    1.8545   -1.4986    0.0000 N   0  0  0  0  0  0  0  0  0  0  0  0
    5.1850    0.6595    0.0000 I   0  0  0  0  0  0  0  0  0  0  0  0
  2  1  1  6
  2  3  1  0
  3  4  2  0
  2  5  1  0
  5  6  1  0
  6  7  1  0
  7  8  1  0
  8  9  2  0
  9 10  1  0
 10 11  2  0
 11 12  1  0
 10 13  1  0
 12  7  2  0
M  END
>  <rName>  (343) 
Cyspyrimid-2-yl5-I-al

>  <PQ_SYMBOL>  (343) 
Cyspyrimid-2-yl5-I-al

>  <FULL_NAME>  (343) 
(2~{R})-2-azanyl-3-(5-iodanylpyrimidin-2-yl)sulfanyl-propanal

>  <IUPAC_CONDENSED>  (343) 
Cys(pyrimid-2-yl(5-I))-al

>  <IUPAC>  (343) 
(2R)-2-amino-3-((5-iodopyrimidin-2-yl)sulfanyl)propanal

>  <TYPE>  (343) 
C-term cap

>  <CLASS>  (343) 
c_cap

>  <ANALOG>  (343) 
X

>  <MOL_WT>  (343) 
309.132

>  <LOGP>  (343) 
0.6994999999999996

>  <TPSA>  (343) 
68.87

>  <POPULARITY>  (343) 
0.2

>  <PROTECTED>  (343) 
FALSE

>  <SMILES>  (343) 
N[C@H](C=O)CSc1ncc(cn1)I

>  <INCHIKEY>  (343) 
MJAWREUUBHZDOO-ZCFIWIBFSA-N

$$$$
deamino-D-Val_OH
     RDKit          2D

  8  7  0  0  0  0  0  0  0  0999 V2000
   -2.5981    0.5625    0.0000 C   0  0  0  0  0  0  0  0  0  0  0  0
   -1.2990   -0.1875    0.0000 C   0  0  0  0  0  0  0  0  0  0  0  0
   -1.2990   -1.6875    0.0000 C   0  0  0  0  0  0  0  0  0  0  0  0
    0.0000    0.5625    0.0000 C   0  0  0  0  0  0  0  0  0  0  0  0
    0.0000    2.0625    0.0000 O   0  0  0  0  0  0  0  0  0  0  0  0
    1.2990   -0.1875    0.0000 C   0  0  0  0  0  0  0  0  0  0  0  0
    1.2990   -1.6875    0.0000 O   0  0  0  0  0  0  0  0  0  0  0  0
    2.5981    0.5625    0.0000 O   0  0  0  0  0  0  0  0  0  0  0  0
  1  2  1  0
  2  3  1  0
  2  4  1  0
  4  5  1  1
  4  6  1  0
  6  7  2  0
  6  8  1  0
M  END
>  <rName>  (344) 
deamino-D-Val_OH

>  <PQ_SYMBOL>  (344) 
deamino-D-Val_OH

>  <FULL_NAME>  (344) 
DEAMINOHYDROXYVALINE

>  <IUPAC_CONDENSED>  (344) 
deamino-D-Val(OH)

>  <IUPAC>  (344) 
(2R)-2-hydroxy-3-methylbutanoic acid

>  <TYPE>  (344) 
N-term cap

>  <CLASS>  (344) 
n_cap

>  <ANALOG>  (344) 
X

>  <MOL_WT>  (344) 
118.13199999999998

>  <LOGP>  (344) 
0.08789999999999998

>  <TPSA>  (344) 
57.53

>  <POPULARITY>  (344) 
22.7

>  <PROTECTED>  (344) 
FALSE

>  <SMILES>  (344) 
CC(C)[C@@H](O)C(=O)O

>  <INCHIKEY>  (344) 
NGEWQZIDQIYUNV-SCSAIBSYSA-N

$$$$
Val-NH2
     RDKit          2D

  8  7  0  0  0  0  0  0  0  0999 V2000
    0.0000    2.0625    0.0000 N   0  0  0  0  0  0  0  0  0  0  0  0
    0.0000    0.5625    0.0000 C   0  0  0  0  0  0  0  0  0  0  0  0
   -1.2990   -0.1875    0.0000 C   0  0  0  0  0  0  0  0  0  0  0  0
   -2.5981    0.5625    0.0000 C   0  0  0  0  0  0  0  0  0  0  0  0
   -1.2990   -1.6875    0.0000 C   0  0  0  0  0  0  0  0  0  0  0  0
    1.2990   -0.1875    0.0000 C   0  0  0  0  0  0  0  0  0  0  0  0
    2.5981    0.5625    0.0000 N   0  0  0  0  0  0  0  0  0  0  0  0
    1.2990   -1.6875    0.0000 O   0  0  0  0  0  0  0  0  0  0  0  0
  2  1  1  6
  2  3  1  0
  3  4  1  0
  3  5  1  0
  2  6  1  0
  6  7  1  0
  6  8  2  0
M  END
>  <rName>  (345) 
Val-NH2

>  <PQ_SYMBOL>  (345) 
Val-NH2

>  <FULL_NAME>  (345) 
VALINYLAMINE

>  <IUPAC_CONDENSED>  (345) 
Val-NH2

>  <IUPAC>  (345) 
(2S)-2-amino-3-methylbutanamide

>  <TYPE>  (345) 
C-term cap

>  <CLASS>  (345) 
c_cap

>  <ANALOG>  (345) 
X

>  <MOL_WT>  (345) 
116.164

>  <LOGP>  (345) 
-0.5450000000000004

>  <TPSA>  (345) 
69.11

>  <POPULARITY>  (345) 
22.3

>  <PROTECTED>  (345) 
FALSE

>  <SMILES>  (345) 
N[C@@H](C(C)C)C(N)=O

>  <INCHIKEY>  (345) 
XDEHMKQLKPZERH-BYPYZUCNSA-N

$$$$
Val-sulfamoyladenosine
     RDKit          2D

 30 32  0  0  0  0  0  0  0  0999 V2000
    7.9986   -0.1797    0.0000 N   0  0  0  0  0  0  0  0  0  0  0  0
    6.9179    0.8605    0.0000 C   0  0  0  0  0  0  0  0  0  0  0  0
    7.2784    2.3166    0.0000 C   0  0  0  0  0  0  0  0  0  0  0  0
    8.7196    2.7324    0.0000 C   0  0  0  0  0  0  0  0  0  0  0  0
    6.1976    3.3568    0.0000 C   0  0  0  0  0  0  0  0  0  0  0  0
    5.4767    0.4447    0.0000 C   0  0  0  0  0  0  0  0  0  0  0  0
    4.3959    1.4849    0.0000 O   0  0  0  0  0  0  0  0  0  0  0  0
    5.1162   -1.0113    0.0000 N   0  0  0  0  0  0  0  0  0  0  0  0
    3.6750   -1.4272    0.0000 S   0  0  0  0  0  0  0  0  0  0  0  0
    3.2591    0.0140    0.0000 O   0  0  0  0  0  0  0  0  0  0  0  0
    4.0908   -2.8684    0.0000 O   0  0  0  0  0  0  0  0  0  0  0  0
    2.2338   -1.8430    0.0000 O   0  0  0  0  0  0  0  0  0  0  0  0
    1.1530   -0.8028    0.0000 C   0  0  0  0  0  0  0  0  0  0  0  0
   -0.2882   -1.2187    0.0000 C   0  0  0  0  0  0  0  0  0  0  0  0
   -1.4717   -0.2971    0.0000 O   0  0  0  0  0  0  0  0  0  0  0  0
   -2.7139   -1.1380    0.0000 C   0  0  0  0  0  0  0  0  0  0  0  0
   -2.2980   -2.5792    0.0000 C   0  0  0  0  0  0  0  0  0  0  0  0
   -3.2196   -3.7627    0.0000 O   0  0  0  0  0  0  0  0  0  0  0  0
   -0.7989   -2.6290    0.0000 C   0  0  0  0  0  0  0  0  0  0  0  0
    0.0420   -3.8712    0.0000 O   0  0  0  0  0  0  0  0  0  0  0  0
   -4.1243   -0.6273    0.0000 N   0  0  0  0  0  0  0  0  0  0  0  0
   -4.5401    0.8140    0.0000 C   0  0  0  0  0  0  0  0  0  0  0  0
   -3.7473    2.0873    0.0000 N   0  0  0  0  0  0  0  0  0  0  0  0
   -4.4537    3.4106    0.0000 C   0  0  0  0  0  0  0  0  0  0  0  0
   -5.9529    3.4605    0.0000 N   0  0  0  0  0  0  0  0  0  0  0  0
   -6.7457    2.1871    0.0000 C   0  0  0  0  0  0  0  0  0  0  0  0
   -8.2448    2.2370    0.0000 N   0  0  0  0  0  0  0  0  0  0  0  0
   -6.0393    0.8638    0.0000 C   0  0  0  0  0  0  0  0  0  0  0  0
   -6.5500   -0.5466    0.0000 N   0  0  0  0  0  0  0  0  0  0  0  0
   -5.3664   -1.4681    0.0000 C   0  0  0  0  0  0  0  0  0  0  0  0
  2  1  1  6
  2  3  1  0
  3  4  1  0
  3  5  1  0
  2  6  1  0
  6  7  2  0
  6  8  1  0
  8  9  1  0
  9 10  2  0
  9 11  2  0
  9 12  1  0
 12 13  1  0
 14 13  1  6
 14 15  1  0
 15 16  1  0
 16 17  1  0
 17 18  1  1
 17 19  1  0
 19 20  1  1
 16 21  1  6
 21 22  1  0
 22 23  2  0
 23 24  1  0
 24 25  2  0
 25 26  1  0
 26 27  1  0
 26 28  2  0
 28 29  1  0
 29 30  2  0
 28 22  1  0
 30 21  1  0
 19 14  1  0
M  END
>  <rName>  (346) 
Val-sulfamoyladenosine

>  <PQ_SYMBOL>  (346) 
Val-sulfamoyladenosine

>  <FULL_NAME>  (346) 
5'O-[N-(L-VALYL)SULPHAMOYL]ADENOSINE

>  <IUPAC_CONDENSED>  (346) 
Val-sulfamoyladenosine

>  <IUPAC>  (346) 
9-((2R,3R,4S,5R)-5-(((1S)-1-amino-2-methylpropylcarbonylsulfamoyloxy)methyl)-3,4-dihydroxyoxolan-2-yl)-2,4,7,9-tetraazabicyclo[4.3.0]nona-1,3,5,7-tetraen-5-amine

>  <TYPE>  (346) 
C-term cap

>  <CLASS>  (346) 
c_cap

>  <ANALOG>  (346) 
X

>  <MOL_WT>  (346) 
445.4580000000001

>  <LOGP>  (346) 
-2.611399999999998

>  <TPSA>  (346) 
217.8

>  <POPULARITY>  (346) 
4.2

>  <PROTECTED>  (346) 
FALSE

>  <SMILES>  (346) 
N[C@@H](C(C)C)C(=O)NS(=O)(=O)OC[C@H]3O[C@H]([C@H](O)[C@@H]3O)n2c1ncnc(N)c1nc2

>  <INCHIKEY>  (346) 
TXCZGHBHNXNXMA-CYUGOOACSA-N

$$$$
Val-ol
     RDKit          2D

  7  6  0  0  0  0  0  0  0  0999 V2000
    0.5797    1.7367    0.0000 N   0  0  0  0  0  0  0  0  0  0  0  0
    0.2514    0.2730    0.0000 C   0  0  0  0  0  0  0  0  0  0  0  0
   -1.1803   -0.1745    0.0000 C   0  0  0  0  0  0  0  0  0  0  0  0
   -2.2837    0.8417    0.0000 C   0  0  0  0  0  0  0  0  0  0  0  0
   -1.5086   -1.6381    0.0000 C   0  0  0  0  0  0  0  0  0  0  0  0
    1.3548   -0.7431    0.0000 C   0  0  0  0  0  0  0  0  0  0  0  0
    2.7865   -0.2956    0.0000 O   0  0  0  0  0  0  0  0  0  0  0  0
  2  1  1  6
  2  3  1  0
  3  4  1  0
  3  5  1  0
  2  6  1  0
  6  7  1  0
M  END
>  <rName>  (347) 
Val-ol

>  <PQ_SYMBOL>  (347) 
Val-ol

>  <FULL_NAME>  (347) 
L-VALINOL

>  <IUPAC_CONDENSED>  (347) 
Val-ol

>  <IUPAC>  (347) 
(2S)-2-amino-3-methylbutan-1-ol

>  <TYPE>  (347) 
C-term cap

>  <CLASS>  (347) 
c_cap

>  <ANALOG>  (347) 
X

>  <MOL_WT>  (347) 
103.16499999999999

>  <LOGP>  (347) 
-0.0380000000000002

>  <TPSA>  (347) 
46.25

>  <POPULARITY>  (347) 
18.1

>  <PROTECTED>  (347) 
FALSE

>  <SMILES>  (347) 
N[C@@H](C(C)C)CO

>  <INCHIKEY>  (347) 
NWYYWIJOWOLJNR-RXMQYKEDSA-N

$$$$
Ac-Glu_OPO3H2
     RDKit          2D

 17 16  0  0  0  0  0  0  0  0999 V2000
   -4.3375   -0.7418    0.0000 O   0  0  0  0  0  0  0  0  0  0  0  0
   -4.1796    0.7498    0.0000 P   0  0  0  0  0  0  0  0  0  0  0  0
   -4.0217    2.2415    0.0000 O   0  0  0  0  0  0  0  0  0  0  0  0
   -5.6712    0.9078    0.0000 O   0  0  0  0  0  0  0  0  0  0  0  0
   -2.6879    0.5919    0.0000 O   0  0  0  0  0  0  0  0  0  0  0  0
   -2.0788   -0.7789    0.0000 C   0  0  0  0  0  0  0  0  0  0  0  0
   -2.9614   -1.9917    0.0000 O   0  0  0  0  0  0  0  0  0  0  0  0
   -0.5872   -0.9368    0.0000 C   0  0  0  0  0  0  0  0  0  0  0  0
    0.2954    0.2761    0.0000 C   0  0  0  0  0  0  0  0  0  0  0  0
    1.7871    0.1182    0.0000 C   0  0  0  0  0  0  0  0  0  0  0  0
    2.6697    1.3310    0.0000 N   0  0  0  0  0  0  0  0  0  0  0  0
    4.1613    1.1731    0.0000 C   0  0  0  0  0  0  0  0  0  0  0  0
    4.7704   -0.1977    0.0000 O   0  0  0  0  0  0  0  0  0  0  0  0
    5.0439    2.3860    0.0000 C   0  0  0  0  0  0  0  0  0  0  0  0
    2.3961   -1.2526    0.0000 C   0  0  0  0  0  0  0  0  0  0  0  0
    3.8878   -1.4105    0.0000 O   0  0  0  0  0  0  0  0  0  0  0  0
    1.5136   -2.4655    0.0000 O   0  0  0  0  0  0  0  0  0  0  0  0
  1  2  1  0
  2  3  2  0
  2  4  1  0
  2  5  1  0
  5  6  1  0
  6  7  2  0
  6  8  1  0
  8  9  1  0
 10  9  1  6
 10 11  1  0
 11 12  1  0
 12 13  2  0
 12 14  1  0
 10 15  1  0
 15 16  2  0
 15 17  1  0
M  END
>  <rName>  (348) 
Ac-Glu_OPO3H2

>  <PQ_SYMBOL>  (348) 
Ac-Glu_OPO3H2

>  <FULL_NAME>  (348) 
N-ACETYL-L-GLUTAMYL 5-PHOSPHATE

>  <IUPAC_CONDENSED>  (348) 
Ac-Glu(OPO3H2)

>  <IUPAC>  (348) 
(4S)-5-hydroxy-4-methylcarbonylamino-1,5-dioxopentyl dihydrogen phosphate

>  <TYPE>  (348) 
N-term cap

>  <CLASS>  (348) 
n_cap

>  <ANALOG>  (348) 
X

>  <MOL_WT>  (348) 
269.14599999999996

>  <LOGP>  (348) 
-1.0081999999999995

>  <TPSA>  (348) 
150.23

>  <POPULARITY>  (348) 
5.3

>  <PROTECTED>  (348) 
FALSE

>  <SMILES>  (348) 
OP(=O)(O)OC(=O)CC[C@H](NC(=O)C)C(=O)O

>  <INCHIKEY>  (348) 
FCVIHFVSXHOPSW-YFKPBYRVSA-N

$$$$
D-nTyrMe-SH
     RDKit          2D

 13 13  0  0  0  0  0  0  0  0999 V2000
   -2.4322   -2.0790    0.0000 N   0  0  0  0  0  0  0  0  0  0  0  0
   -1.9834   -0.6478    0.0000 C   0  0  0  0  0  0  0  0  0  0  0  0
   -2.9985    0.4566    0.0000 C   0  0  0  0  0  0  0  0  0  0  0  0
   -4.4625    0.1296    0.0000 O   0  0  0  0  0  0  0  0  0  0  0  0
   -2.5497    1.8879    0.0000 S   0  0  0  0  0  0  0  0  0  0  0  0
   -0.5195   -0.3208    0.0000 C   0  0  0  0  0  0  0  0  0  0  0  0
   -0.0707    1.1105    0.0000 C   0  0  0  0  0  0  0  0  0  0  0  0
    1.3933    1.4374    0.0000 C   0  0  0  0  0  0  0  0  0  0  0  0
    2.4084    0.3331    0.0000 C   0  0  0  0  0  0  0  0  0  0  0  0
    1.9596   -1.0982    0.0000 C   0  0  0  0  0  0  0  0  0  0  0  0
    0.4956   -1.4251    0.0000 C   0  0  0  0  0  0  0  0  0  0  0  0
    3.8723    0.6601    0.0000 O   0  0  0  0  0  0  0  0  0  0  0  0
    4.8874   -0.4443    0.0000 C   0  0  0  0  0  0  0  0  0  0  0  0
  2  1  1  1
  2  3  1  0
  3  4  1  0
  3  5  2  0
  2  6  1  0
  6  7  1  0
  7  8  2  0
  8  9  1  0
  9 10  2  0
 10 11  1  0
  9 12  1  0
 12 13  1  0
 11  6  2  0
M  END
>  <rName>  (349) 
D-nTyrMe-SH

>  <PQ_SYMBOL>  (349) 
D-nTyrMe-SH

>  <FULL_NAME>  (349) 
(2R)-amino(4-methoxyphenyl)ethanethioic O-acid

>  <IUPAC_CONDENSED>  (349) 
D-nTyr(Me)-SH

>  <IUPAC>  (349) 
(2R)-2-amino-2-(4-methoxyphenyl)-1-thioxoethan-1-ol

>  <TYPE>  (349) 
C-term cap

>  <CLASS>  (349) 
c_cap

>  <ANALOG>  (349) 
X

>  <MOL_WT>  (349) 
197.259

>  <LOGP>  (349) 
1.5804000000000002

>  <TPSA>  (349) 
55.480000000000004

>  <POPULARITY>  (349) 
3.1

>  <PROTECTED>  (349) 
FALSE

>  <SMILES>  (349) 
N[C@@H](C(O)=S)c1ccc(cc1)OC

>  <INCHIKEY>  (349) 
INSVIGJTBISSTF-MRVPVSSYSA-N

$$$$
Me-Ala-NH2
     RDKit          2D

  7  6  0  0  0  0  0  0  0  0999 V2000
    1.5000   -0.7423    0.0000 N   0  0  0  0  0  0  0  0  0  0  0  0
    2.2500    0.5567    0.0000 C   0  0  0  0  0  0  0  0  0  0  0  0
    0.0000   -0.7423    0.0000 C   0  0  0  0  0  0  0  0  0  0  0  0
   -0.7500   -2.0413    0.0000 C   0  0  0  0  0  0  0  0  0  0  0  0
   -0.7500    0.5567    0.0000 C   0  0  0  0  0  0  0  0  0  0  0  0
   -2.2500    0.5567    0.0000 N   0  0  0  0  0  0  0  0  0  0  0  0
   -0.0000    1.8558    0.0000 O   0  0  0  0  0  0  0  0  0  0  0  0
  1  2  1  0
  1  3  1  0
  3  4  1  1
  3  5  1  0
  5  6  1  0
  5  7  2  0
M  END
>  <rName>  (350) 
Me-Ala-NH2

>  <PQ_SYMBOL>  (350) 
Me-Ala-NH2

>  <FULL_NAME>  (350) 
N^2^-methyl-L-alaninamide

>  <IUPAC_CONDENSED>  (350) 
Me-Ala-NH2

>  <IUPAC>  (350) 
(2S)-2-(methylamino)propanamide

>  <TYPE>  (350) 
C-term cap

>  <CLASS>  (350) 
c_cap

>  <ANALOG>  (350) 
X

>  <MOL_WT>  (350) 
102.137

>  <LOGP>  (350) 
-0.9204000000000003

>  <TPSA>  (350) 
55.12

>  <POPULARITY>  (350) 
17.4

>  <PROTECTED>  (350) 
FALSE

>  <SMILES>  (350) 
N(C)[C@@H](C)C(N)=O

>  <INCHIKEY>  (350) 
QKNFFJHHPCWXTH-VKHMYHEASA-N

$$$$
D-Pyr
     RDKit          2D

  9  9  0  0  0  0  0  0  0  0999 V2000
   -3.3052   -0.8467    0.0000 O   0  0  0  0  0  0  0  0  0  0  0  0
   -1.9481   -0.2077    0.0000 C   0  0  0  0  0  0  0  0  0  0  0  0
   -0.6334   -0.9301    0.0000 N   0  0  0  0  0  0  0  0  0  0  0  0
    0.4598    0.0969    0.0000 C   0  0  0  0  0  0  0  0  0  0  0  0
   -0.1792    1.4541    0.0000 C   0  0  0  0  0  0  0  0  0  0  0  0
   -1.6673    1.2657    0.0000 C   0  0  0  0  0  0  0  0  0  0  0  0
    1.9333   -0.1838    0.0000 C   0  0  0  0  0  0  0  0  0  0  0  0
    2.9132    0.9519    0.0000 O   0  0  0  0  0  0  0  0  0  0  0  0
    2.4269   -1.6003    0.0000 O   0  0  0  0  0  0  0  0  0  0  0  0
  1  2  2  0
  2  3  1  0
  3  4  1  0
  4  5  1  0
  5  6  1  0
  4  7  1  6
  7  8  2  0
  7  9  1  0
  6  2  1  0
M  END
>  <rName>  (351) 
D-Pyr

>  <PQ_SYMBOL>  (351) 
D-Pyr

>  <FULL_NAME>  (351) 
D-Pyroglutamic acid

>  <IUPAC_CONDENSED>  (351) 
D-Pyr

>  <IUPAC>  (351) 
(2R)-5-oxopyrrolidine-2-carboxylic acid

>  <TYPE>  (351) 
N-term cap

>  <CLASS>  (351) 
n_cap

>  <ANALOG>  (351) 
X

>  <MOL_WT>  (351) 
129.115

>  <LOGP>  (351) 
-0.6504000000000005

>  <TPSA>  (351) 
66.4

>  <POPULARITY>  (351) 
15.2

>  <PROTECTED>  (351) 
FALSE

>  <SMILES>  (351) 
O=C1N[C@H](CC1)C(=O)O

>  <INCHIKEY>  (351) 
ODHCTXKNWHHXJC-GSVOUGTGSA-N

$$$$
Ala-ol
     RDKit          2D

  5  4  0  0  0  0  0  0  0  0999 V2000
   -0.5196    1.5000    0.0000 N   0  0  0  0  0  0  0  0  0  0  0  0
   -0.5196    0.0000    0.0000 C   0  0  0  0  0  0  0  0  0  0  0  0
   -1.8187   -0.7500    0.0000 C   0  0  0  0  0  0  0  0  0  0  0  0
    0.7794   -0.7500    0.0000 C   0  0  0  0  0  0  0  0  0  0  0  0
    2.0785   -0.0000    0.0000 O   0  0  0  0  0  0  0  0  0  0  0  0
  1  2  1  0
  2  3  1  6
  2  4  1  0
  4  5  1  0
M  END
>  <rName>  (352) 
Ala-ol

>  <PQ_SYMBOL>  (352) 
Ala-ol

>  <FULL_NAME>  (352) 
(2S)-2-aminopropan-1-ol

>  <IUPAC_CONDENSED>  (352) 
L-Ala-ol

>  <IUPAC>  (352) 
(2S)-2-aminopropan-1-ol

>  <TYPE>  (352) 
C-term cap

>  <CLASS>  (352) 
c_cap

>  <ANALOG>  (352) 
X

>  <MOL_WT>  (352) 
75.11099999999999

>  <LOGP>  (352) 
-0.6741000000000001

>  <TPSA>  (352) 
46.25

>  <POPULARITY>  (352) 
14.8

>  <PROTECTED>  (352) 
FALSE

>  <SMILES>  (352) 
N[C@@H](C)CO

>  <INCHIKEY>  (352) 
BKMMTJMQCTUHRP-VKHMYHEASA-N

$$$$
Ser-ol-
     RDKit          2D

  6  5  0  0  0  0  0  0  0  0999 V2000
    0.0000    1.5000    0.0000 N   0  0  0  0  0  0  0  0  0  0  0  0
    0.0000    0.0000    0.0000 C   0  0  0  0  0  0  0  0  0  0  0  0
   -1.2990   -0.7500    0.0000 C   0  0  0  0  0  0  0  0  0  0  0  0
   -2.5981    0.0000    0.0000 O   0  0  0  0  0  0  0  0  0  0  0  0
    1.2990   -0.7500    0.0000 C   0  0  0  0  0  0  0  0  0  0  0  0
    2.5981   -0.0000    0.0000 O   0  0  0  0  0  0  0  0  0  0  0  0
  1  2  1  0
  2  3  1  0
  3  4  1  0
  2  5  1  0
  5  6  1  0
M  END
>  <rName>  (353) 
Ser-ol-

>  <PQ_SYMBOL>  (353) 
Ser-ol-

>  <FULL_NAME>  (353) 
2-amino-1,3-propanediol

>  <IUPAC_CONDENSED>  (353) 
Ser-ol

>  <IUPAC>  (353) 
2-aminopropane-1,3-diol

>  <TYPE>  (353) 
N-term cap

>  <CLASS>  (353) 
n_cap

>  <ANALOG>  (353) 
X

>  <MOL_WT>  (353) 
91.11

>  <LOGP>  (353) 
-1.7017

>  <TPSA>  (353) 
66.48

>  <POPULARITY>  (353) 
15

>  <PROTECTED>  (353) 
FALSE

>  <SMILES>  (353) 
NC(CO)CO

>  <INCHIKEY>  (353) 
KJJPLEZQSCZCKE-UHFFFAOYSA-N

$$$$
D-Phg-ol
     RDKit          2D

 10 10  0  0  0  0  0  0  0  0999 V2000
   -1.9660   -1.7051    0.0000 N   0  0  0  0  0  0  0  0  0  0  0  0
   -1.3951   -0.3180    0.0000 C   0  0  0  0  0  0  0  0  0  0  0  0
   -2.3110    0.8699    0.0000 C   0  0  0  0  0  0  0  0  0  0  0  0
   -3.7977    0.6707    0.0000 O   0  0  0  0  0  0  0  0  0  0  0  0
    0.0916   -0.1188    0.0000 C   0  0  0  0  0  0  0  0  0  0  0  0
    0.6624    1.2683    0.0000 C   0  0  0  0  0  0  0  0  0  0  0  0
    2.1491    1.4676    0.0000 C   0  0  0  0  0  0  0  0  0  0  0  0
    3.0650    0.2796    0.0000 C   0  0  0  0  0  0  0  0  0  0  0  0
    2.4942   -1.1075    0.0000 C   0  0  0  0  0  0  0  0  0  0  0  0
    1.0075   -1.3067    0.0000 C   0  0  0  0  0  0  0  0  0  0  0  0
  2  1  1  1
  2  3  1  0
  3  4  1  0
  2  5  1  0
  5  6  2  0
  6  7  1  0
  7  8  2  0
  8  9  1  0
  9 10  2  0
 10  5  1  0
M  END
>  <rName>  (354) 
D-Phg-ol

>  <PQ_SYMBOL>  (354) 
D-Phg-ol

>  <FULL_NAME>  (354) 
(2R)-2-amino-2-phenylethan-1-ol

>  <IUPAC_CONDENSED>  (354) 
D-Phg-ol

>  <IUPAC>  (354) 
(2R)-2-amino-2-phenylethan-1-ol

>  <TYPE>  (354) 
C-term cap

>  <CLASS>  (354) 
c_cap

>  <ANALOG>  (354) 
X

>  <MOL_WT>  (354) 
137.182

>  <LOGP>  (354) 
0.6787000000000001

>  <TPSA>  (354) 
46.25

>  <POPULARITY>  (354) 
13

>  <PROTECTED>  (354) 
FALSE

>  <SMILES>  (354) 
N[C@@H](CO)c1ccccc1

>  <INCHIKEY>  (354) 
IJXJGQCXFSSHNL-QMMMGPOBSA-N

$$$$
-Gly-ol
     RDKit          2D

  3  2  0  0  0  0  0  0  0  0999 V2000
    1.2990    0.2500    0.0000 N   0  0  0  0  0  0  0  0  0  0  0  0
   -0.0000   -0.5000    0.0000 C   0  0  0  0  0  0  0  0  0  0  0  0
   -1.2990    0.2500    0.0000 O   0  0  0  0  0  0  0  0  0  0  0  0
  1  2  1  0
  2  3  1  0
M  END
>  <rName>  (355) 
-Gly-ol

>  <PQ_SYMBOL>  (355) 
-Gly-ol

>  <FULL_NAME>  (355) 
aminomethanol

>  <IUPAC_CONDENSED>  (355) 
Gly-ol

>  <IUPAC>  (355) 
1-aminomethanol

>  <TYPE>  (355) 
C-term cap

>  <CLASS>  (355) 
c_cap

>  <ANALOG>  (355) 
X

>  <MOL_WT>  (355) 
47.057

>  <LOGP>  (355) 
-1.1051000000000002

>  <TPSA>  (355) 
46.25

>  <POPULARITY>  (355) 
2

>  <PROTECTED>  (355) 
FALSE

>  <SMILES>  (355) 
NCO

>  <INCHIKEY>  (355) 
XMYQHJDBLRZMLW-UHFFFAOYSA-N

$$$$
Phg-ol
     RDKit          2D

 10 10  0  0  0  0  0  0  0  0999 V2000
   -1.9660   -1.7051    0.0000 N   0  0  0  0  0  0  0  0  0  0  0  0
   -1.3951   -0.3180    0.0000 C   0  0  0  0  0  0  0  0  0  0  0  0
   -2.3110    0.8699    0.0000 C   0  0  0  0  0  0  0  0  0  0  0  0
   -3.7977    0.6707    0.0000 O   0  0  0  0  0  0  0  0  0  0  0  0
    0.0916   -0.1188    0.0000 C   0  0  0  0  0  0  0  0  0  0  0  0
    0.6624    1.2683    0.0000 C   0  0  0  0  0  0  0  0  0  0  0  0
    2.1491    1.4676    0.0000 C   0  0  0  0  0  0  0  0  0  0  0  0
    3.0650    0.2796    0.0000 C   0  0  0  0  0  0  0  0  0  0  0  0
    2.4942   -1.1075    0.0000 C   0  0  0  0  0  0  0  0  0  0  0  0
    1.0075   -1.3067    0.0000 C   0  0  0  0  0  0  0  0  0  0  0  0
  2  1  1  6
  2  3  1  0
  3  4  1  0
  2  5  1  0
  5  6  2  0
  6  7  1  0
  7  8  2  0
  8  9  1  0
  9 10  2  0
 10  5  1  0
M  END
>  <rName>  (356) 
Phg-ol

>  <PQ_SYMBOL>  (356) 
Phg-ol

>  <FULL_NAME>  (356) 
(2S)-2-amino-2-phenylethan-1-ol

>  <IUPAC_CONDENSED>  (356) 
Phg-ol

>  <IUPAC>  (356) 
(2S)-2-amino-2-phenylethan-1-ol

>  <TYPE>  (356) 
C-term cap

>  <CLASS>  (356) 
c_cap

>  <ANALOG>  (356) 
X

>  <MOL_WT>  (356) 
137.182

>  <LOGP>  (356) 
0.6787000000000001

>  <TPSA>  (356) 
46.25

>  <POPULARITY>  (356) 
11.7

>  <PROTECTED>  (356) 
FALSE

>  <SMILES>  (356) 
N[C@H](CO)c1ccccc1

>  <INCHIKEY>  (356) 
IJXJGQCXFSSHNL-MRVPVSSYSA-N

$$$$
Lys-ol
     RDKit          2D

  9  8  0  0  0  0  0  0  0  0999 V2000
    4.7932   -0.2311    0.0000 N   0  0  0  0  0  0  0  0  0  0  0  0
    3.4424    0.4213    0.0000 C   0  0  0  0  0  0  0  0  0  0  0  0
    2.2021   -0.4223    0.0000 C   0  0  0  0  0  0  0  0  0  0  0  0
    0.8514    0.2300    0.0000 C   0  0  0  0  0  0  0  0  0  0  0  0
   -0.3889   -0.6136    0.0000 C   0  0  0  0  0  0  0  0  0  0  0  0
   -1.7396    0.0387    0.0000 C   0  0  0  0  0  0  0  0  0  0  0  0
   -1.8501    1.5346    0.0000 N   0  0  0  0  0  0  0  0  0  0  0  0
   -2.9799   -0.8049    0.0000 C   0  0  0  0  0  0  0  0  0  0  0  0
   -4.3306   -0.1526    0.0000 O   0  0  0  0  0  0  0  0  0  0  0  0
  1  2  1  0
  2  3  1  0
  3  4  1  0
  4  5  1  0
  5  6  1  0
  6  7  1  1
  6  8  1  0
  8  9  1  0
M  END
>  <rName>  (357) 
Lys-ol

>  <PQ_SYMBOL>  (357) 
Lys-ol

>  <FULL_NAME>  (357) 
(2S)-2,6-diaminohexan-1-ol

>  <IUPAC_CONDENSED>  (357) 
Lys-ol

>  <IUPAC>  (357) 
(2S)-2,6-diaminohexan-1-ol

>  <TYPE>  (357) 
C-term cap

>  <CLASS>  (357) 
c_cap

>  <ANALOG>  (357) 
X

>  <MOL_WT>  (357) 
132.20700000000002

>  <LOGP>  (357) 
-0.5649999999999997

>  <TPSA>  (357) 
72.27

>  <POPULARITY>  (357) 
10.9

>  <PROTECTED>  (357) 
FALSE

>  <SMILES>  (357) 
NCCCC[C@H](N)CO

>  <INCHIKEY>  (357) 
LTGPFZWZZNUIIK-LURJTMIESA-N

$$$$
Leu-ol
     RDKit          2D

  8  7  0  0  0  0  0  0  0  0999 V2000
    0.7931   -1.4169    0.0000 N   0  0  0  0  0  0  0  0  0  0  0  0
    0.8131    0.0829    0.0000 C   0  0  0  0  0  0  0  0  0  0  0  0
    2.1220    0.8156    0.0000 C   0  0  0  0  0  0  0  0  0  0  0  0
    3.4109    0.0483    0.0000 O   0  0  0  0  0  0  0  0  0  0  0  0
   -0.4759    0.8502    0.0000 C   0  0  0  0  0  0  0  0  0  0  0  0
   -1.7848    0.1175    0.0000 C   0  0  0  0  0  0  0  0  0  0  0  0
   -3.0737    0.8848    0.0000 C   0  0  0  0  0  0  0  0  0  0  0  0
   -1.8048   -1.3823    0.0000 C   0  0  0  0  0  0  0  0  0  0  0  0
  2  1  1  1
  2  3  1  0
  3  4  1  0
  2  5  1  0
  5  6  1  0
  6  7  1  0
  6  8  1  0
M  END
>  <rName>  (358) 
Leu-ol

>  <PQ_SYMBOL>  (358) 
Leu-ol

>  <FULL_NAME>  (358) 
(2S)-2-amino-4-methylpentan-1-ol

>  <IUPAC_CONDENSED>  (358) 
Leu-ol

>  <IUPAC>  (358) 
(2S)-2-amino-4-methylpentan-1-ol

>  <TYPE>  (358) 
C-term cap

>  <CLASS>  (358) 
c_cap

>  <ANALOG>  (358) 
X

>  <MOL_WT>  (358) 
117.192

>  <LOGP>  (358) 
0.35209999999999964

>  <TPSA>  (358) 
46.25

>  <POPULARITY>  (358) 
13.3

>  <PROTECTED>  (358) 
FALSE

>  <SMILES>  (358) 
N[C@H](CO)CC(C)C

>  <INCHIKEY>  (358) 
VPSSPAXIFBTOHY-LURJTMIESA-N

$$$$
D-Pro-ol
     RDKit          2D

  7  7  0  0  0  0  0  0  0  0999 V2000
   -0.2456   -1.1191    0.0000 N   0  0  0  0  0  0  0  0  0  0  0  0
    0.3205    0.2700    0.0000 C   0  0  0  0  0  0  0  0  0  0  0  0
   -0.8257    1.2376    0.0000 C   0  0  0  0  0  0  0  0  0  0  0  0
   -2.1002    0.4466    0.0000 C   0  0  0  0  0  0  0  0  0  0  0  0
   -1.7417   -1.0099    0.0000 C   0  0  0  0  0  0  0  0  0  0  0  0
    1.7770    0.6285    0.0000 C   0  0  0  0  0  0  0  0  0  0  0  0
    2.8157   -0.4537    0.0000 O   0  0  0  0  0  0  0  0  0  0  0  0
  1  2  1  0
  2  3  1  0
  3  4  1  0
  4  5  1  0
  2  6  1  6
  6  7  1  0
  5  1  1  0
M  END
>  <rName>  (359) 
D-Pro-ol

>  <PQ_SYMBOL>  (359) 
D-Pro-ol

>  <FULL_NAME>  (359) 
[(2R)-pyrrolidin-2-yl]methanol

>  <IUPAC_CONDENSED>  (359) 
D-Pro-ol

>  <IUPAC>  (359) 
1-((2R)-pyrrolidin-2-yl)methanol

>  <TYPE>  (359) 
C-term cap

>  <CLASS>  (359) 
c_cap

>  <ANALOG>  (359) 
X

>  <MOL_WT>  (359) 
101.149

>  <LOGP>  (359) 
-0.26930000000000004

>  <TPSA>  (359) 
32.26

>  <POPULARITY>  (359) 
10.1

>  <PROTECTED>  (359) 
FALSE

>  <SMILES>  (359) 
N1[C@H](CCC1)CO

>  <INCHIKEY>  (359) 
HVVNJUAVDAZWCB-RXMQYKEDSA-N

$$$$
Pro-al
     RDKit          2D

  7  7  0  0  0  0  0  0  0  0999 V2000
   -0.2456   -1.1191    0.0000 N   0  0  0  0  0  0  0  0  0  0  0  0
    0.3205    0.2700    0.0000 C   0  0  0  0  0  0  0  0  0  0  0  0
   -0.8257    1.2376    0.0000 C   0  0  0  0  0  0  0  0  0  0  0  0
   -2.1002    0.4466    0.0000 C   0  0  0  0  0  0  0  0  0  0  0  0
   -1.7417   -1.0099    0.0000 C   0  0  0  0  0  0  0  0  0  0  0  0
    1.7770    0.6285    0.0000 C   0  0  0  0  0  0  0  0  0  0  0  0
    2.8157   -0.4537    0.0000 O   0  0  0  0  0  0  0  0  0  0  0  0
  1  2  1  0
  2  3  1  0
  3  4  1  0
  4  5  1  0
  2  6  1  1
  6  7  2  0
  5  1  1  0
M  END
>  <rName>  (360) 
Pro-al

>  <PQ_SYMBOL>  (360) 
Pro-al

>  <FULL_NAME>  (360) 
(2S)-pyrrolidine-2-carbaldehyde

>  <IUPAC_CONDENSED>  (360) 
Pro-al

>  <IUPAC>  (360) 
(2S)-pyrrolidine-2-carbaldehyde

>  <TYPE>  (360) 
C-term cap

>  <CLASS>  (360) 
c_cap

>  <ANALOG>  (360) 
X

>  <MOL_WT>  (360) 
99.133

>  <LOGP>  (360) 
-0.0627000000000002

>  <TPSA>  (360) 
29.1

>  <POPULARITY>  (360) 
14.2

>  <PROTECTED>  (360) 
FALSE

>  <SMILES>  (360) 
N1[C@@H](CCC1)C=O

>  <INCHIKEY>  (360) 
JIDDDPVQQUHACU-YFKPBYRVSA-N

$$$$
Pro-ol
     RDKit          2D

  7  7  0  0  0  0  0  0  0  0999 V2000
   -0.2456   -1.1191    0.0000 N   0  0  0  0  0  0  0  0  0  0  0  0
    0.3205    0.2700    0.0000 C   0  0  0  0  0  0  0  0  0  0  0  0
   -0.8257    1.2376    0.0000 C   0  0  0  0  0  0  0  0  0  0  0  0
   -2.1002    0.4466    0.0000 C   0  0  0  0  0  0  0  0  0  0  0  0
   -1.7417   -1.0099    0.0000 C   0  0  0  0  0  0  0  0  0  0  0  0
    1.7770    0.6285    0.0000 C   0  0  0  0  0  0  0  0  0  0  0  0
    2.8157   -0.4537    0.0000 O   0  0  0  0  0  0  0  0  0  0  0  0
  1  2  1  0
  2  3  1  0
  3  4  1  0
  4  5  1  0
  2  6  1  1
  6  7  1  0
  5  1  1  0
M  END
>  <rName>  (361) 
Pro-ol

>  <PQ_SYMBOL>  (361) 
Pro-ol

>  <FULL_NAME>  (361) 
[(2S)-pyrrolidin-2-yl]methanol

>  <IUPAC_CONDENSED>  (361) 
Pro-ol

>  <IUPAC>  (361) 
1-((2S)-pyrrolidin-2-yl)methanol

>  <TYPE>  (361) 
C-term cap

>  <CLASS>  (361) 
c_cap

>  <ANALOG>  (361) 
X

>  <MOL_WT>  (361) 
101.149

>  <LOGP>  (361) 
-0.26930000000000004

>  <TPSA>  (361) 
32.26

>  <POPULARITY>  (361) 
12.7

>  <PROTECTED>  (361) 
FALSE

>  <SMILES>  (361) 
N1[C@@H](CCC1)CO

>  <INCHIKEY>  (361) 
HVVNJUAVDAZWCB-YFKPBYRVSA-N

$$$$
D-Thr-ol
     RDKit          2D

  7  6  0  0  0  0  0  0  0  0999 V2000
   -0.5797    1.7367    0.0000 N   0  0  0  0  0  0  0  0  0  0  0  0
   -0.2514    0.2730    0.0000 C   0  0  0  0  0  0  0  0  0  0  0  0
   -1.3548   -0.7431    0.0000 C   0  0  0  0  0  0  0  0  0  0  0  0
   -2.7865   -0.2956    0.0000 O   0  0  0  0  0  0  0  0  0  0  0  0
    1.1803   -0.1745    0.0000 C   0  0  0  0  0  0  0  0  0  0  0  0
    2.2837    0.8417    0.0000 C   0  0  0  0  0  0  0  0  0  0  0  0
    1.5086   -1.6381    0.0000 O   0  0  0  0  0  0  0  0  0  0  0  0
  2  1  1  6
  2  3  1  0
  3  4  1  0
  2  5  1  0
  5  6  1  6
  5  7  1  0
M  END
>  <rName>  (362) 
D-Thr-ol

>  <PQ_SYMBOL>  (362) 
D-Thr-ol

>  <FULL_NAME>  (362) 
(2S,3S)-2-aminobutane-1,3-diol

>  <IUPAC_CONDENSED>  (362) 
D-Thr-ol

>  <IUPAC>  (362) 
(2S,3S)-2-aminobutane-1,3-diol

>  <TYPE>  (362) 
C-term cap

>  <CLASS>  (362) 
c_cap

>  <ANALOG>  (362) 
X

>  <MOL_WT>  (362) 
105.13699999999999

>  <LOGP>  (362) 
-1.3132

>  <TPSA>  (362) 
66.48

>  <POPULARITY>  (362) 
12.5

>  <PROTECTED>  (362) 
FALSE

>  <SMILES>  (362) 
N[C@@H](CO)[C@H](C)O

>  <INCHIKEY>  (362) 
MUVQIIBPDFTEKM-IMJSIDKUSA-N

$$$$
Aib-ol
     RDKit          2D

  6  5  0  0  0  0  0  0  0  0999 V2000
    1.7321   -0.7500    0.0000 N   0  0  0  0  0  0  0  0  0  0  0  0
    0.4330    0.0000    0.0000 C   0  0  0  0  0  0  0  0  0  0  0  0
    1.1830    1.2990    0.0000 C   0  0  0  0  0  0  0  0  0  0  0  0
   -0.3170   -1.2990    0.0000 C   0  0  0  0  0  0  0  0  0  0  0  0
   -0.8660    0.7500    0.0000 C   0  0  0  0  0  0  0  0  0  0  0  0
   -2.1651   -0.0000    0.0000 O   0  0  0  0  0  0  0  0  0  0  0  0
  1  2  1  0
  2  3  1  0
  2  4  1  0
  2  5  1  0
  5  6  1  0
M  END
>  <rName>  (363) 
Aib-ol

>  <PQ_SYMBOL>  (363) 
Aib-ol

>  <FULL_NAME>  (363) 
2-amino-2-methylpropan-1-ol

>  <IUPAC_CONDENSED>  (363) 
Aib-ol

>  <IUPAC>  (363) 
2-amino-2-methylpropan-1-ol

>  <TYPE>  (363) 
C-term cap

>  <CLASS>  (363) 
c_cap

>  <ANALOG>  (363) 
X

>  <MOL_WT>  (363) 
89.13799999999999

>  <LOGP>  (363) 
-0.2840000000000002

>  <TPSA>  (363) 
46.25

>  <POPULARITY>  (363) 
13.4

>  <PROTECTED>  (363) 
FALSE

>  <SMILES>  (363) 
NC(C)(C)CO

>  <INCHIKEY>  (363) 
CBTVGIZVANVGBH-UHFFFAOYSA-N

$$$$
NMe23Abz
     RDKit          2D

 12 12  0  0  0  0  0  0  0  0999 V2000
    2.5981   -2.1250    0.0000 C   0  0  0  0  0  0  0  0  0  0  0  0
    2.5981   -0.6250    0.0000 N   0  0  0  0  0  0  0  0  0  0  0  0
    3.8971    0.1250    0.0000 C   0  0  0  0  0  0  0  0  0  0  0  0
    1.2990    0.1250    0.0000 C   0  0  0  0  0  0  0  0  0  0  0  0
   -0.0000   -0.6250    0.0000 C   0  0  0  0  0  0  0  0  0  0  0  0
   -1.2990    0.1250    0.0000 C   0  0  0  0  0  0  0  0  0  0  0  0
   -1.2990    1.6250    0.0000 C   0  0  0  0  0  0  0  0  0  0  0  0
   -0.0000    2.3750    0.0000 C   0  0  0  0  0  0  0  0  0  0  0  0
    1.2990    1.6250    0.0000 C   0  0  0  0  0  0  0  0  0  0  0  0
   -2.5981   -0.6250    0.0000 C   0  0  0  0  0  0  0  0  0  0  0  0
   -2.5981   -2.1250    0.0000 O   0  0  0  0  0  0  0  0  0  0  0  0
   -3.8971    0.1250    0.0000 O   0  0  0  0  0  0  0  0  0  0  0  0
  1  2  1  0
  2  3  1  0
  2  4  1  0
  4  5  1  0
  5  6  2  0
  6  7  1  0
  7  8  2  0
  8  9  1  0
  6 10  1  0
 10 11  2  0
 10 12  1  0
  9  4  2  0
M  END
>  <rName>  (364) 
NMe23Abz

>  <PQ_SYMBOL>  (364) 
NMe23Abz

>  <FULL_NAME>  (364) 
3-(dimethylamino)benzoic acid

>  <IUPAC_CONDENSED>  (364) 
N(Me2)3Abz

>  <IUPAC>  (364) 
3-(dimethylamino)benzoic acid

>  <TYPE>  (364) 
N-term cap

>  <CLASS>  (364) 
n_cap

>  <ANALOG>  (364) 
X

>  <MOL_WT>  (364) 
165.19199999999995

>  <LOGP>  (364) 
1.4507999999999999

>  <TPSA>  (364) 
40.540000000000006

>  <POPULARITY>  (364) 
12.2

>  <PROTECTED>  (364) 
FALSE

>  <SMILES>  (364) 
CN(C)c1cc(ccc1)C(=O)O

>  <INCHIKEY>  (364) 
NEGFNJRAUMCZMY-UHFFFAOYSA-N

$$$$
NMe24Abz
     RDKit          2D

 12 12  0  0  0  0  0  0  0  0999 V2000
    3.7500   -1.2990    0.0000 C   0  0  0  0  0  0  0  0  0  0  0  0
    3.0000    0.0000    0.0000 N   0  0  0  0  0  0  0  0  0  0  0  0
    3.7500    1.2990    0.0000 C   0  0  0  0  0  0  0  0  0  0  0  0
    1.5000   -0.0000    0.0000 C   0  0  0  0  0  0  0  0  0  0  0  0
    0.7500   -1.2990    0.0000 C   0  0  0  0  0  0  0  0  0  0  0  0
   -0.7500   -1.2990    0.0000 C   0  0  0  0  0  0  0  0  0  0  0  0
   -1.5000    0.0000    0.0000 C   0  0  0  0  0  0  0  0  0  0  0  0
   -0.7500    1.2990    0.0000 C   0  0  0  0  0  0  0  0  0  0  0  0
    0.7500    1.2990    0.0000 C   0  0  0  0  0  0  0  0  0  0  0  0
   -3.0000    0.0000    0.0000 C   0  0  0  0  0  0  0  0  0  0  0  0
   -3.7500   -1.2990    0.0000 O   0  0  0  0  0  0  0  0  0  0  0  0
   -3.7500    1.2990    0.0000 O   0  0  0  0  0  0  0  0  0  0  0  0
  1  2  1  0
  2  3  1  0
  2  4  1  0
  4  5  1  0
  5  6  2  0
  6  7  1  0
  7  8  2  0
  8  9  1  0
  7 10  1  0
 10 11  2  0
 10 12  1  0
  9  4  2  0
M  END
>  <rName>  (365) 
NMe24Abz

>  <PQ_SYMBOL>  (365) 
NMe24Abz

>  <FULL_NAME>  (365) 
4-(dimethylamino)benzoic acid

>  <IUPAC_CONDENSED>  (365) 
N(Me2)4Abz

>  <IUPAC>  (365) 
4-(dimethylamino)benzoic acid

>  <TYPE>  (365) 
N-term cap

>  <CLASS>  (365) 
n_cap

>  <ANALOG>  (365) 
X

>  <MOL_WT>  (365) 
165.19199999999995

>  <LOGP>  (365) 
1.4507999999999999

>  <TPSA>  (365) 
40.540000000000006

>  <POPULARITY>  (365) 
11.9

>  <PROTECTED>  (365) 
FALSE

>  <SMILES>  (365) 
CN(C)c1ccc(cc1)C(=O)O

>  <INCHIKEY>  (365) 
YDIYEOMDOWUDTJ-UHFFFAOYSA-N

$$$$
deamino-D-Ala_OH
     RDKit          2D

  6  5  0  0  0  0  0  0  0  0999 V2000
    1.5000   -1.2990    0.0000 O   0  0  0  0  0  0  0  0  0  0  0  0
    0.7500    0.0000    0.0000 C   0  0  0  0  0  0  0  0  0  0  0  0
    1.5000    1.2990    0.0000 C   0  0  0  0  0  0  0  0  0  0  0  0
   -0.7500   -0.0000    0.0000 C   0  0  0  0  0  0  0  0  0  0  0  0
   -1.5000    1.2990    0.0000 O   0  0  0  0  0  0  0  0  0  0  0  0
   -1.5000   -1.2990    0.0000 O   0  0  0  0  0  0  0  0  0  0  0  0
  1  2  1  0
  2  3  1  1
  2  4  1  0
  4  5  2  0
  4  6  1  0
M  END
>  <rName>  (366) 
deamino-D-Ala_OH

>  <PQ_SYMBOL>  (366) 
deamino-D-Ala_OH

>  <FULL_NAME>  (366) 
(2R)-2-hydroxypropanoic acid

>  <IUPAC_CONDENSED>  (366) 
deamino-D-Ala(OH)

>  <IUPAC>  (366) 
(2R)-2-hydroxypropanoic acid

>  <TYPE>  (366) 
N-term cap

>  <CLASS>  (366) 
n_cap

>  <ANALOG>  (366) 
X

>  <MOL_WT>  (366) 
90.07799999999999

>  <LOGP>  (366) 
-0.5482

>  <TPSA>  (366) 
57.53

>  <POPULARITY>  (366) 
15

>  <PROTECTED>  (366) 
FALSE

>  <SMILES>  (366) 
O[C@H](C)C(=O)O

>  <INCHIKEY>  (366) 
JVTAAEKCZFNVCJ-UWTATZPHSA-N

$$$$
deamino-Ala_OH
     RDKit          2D

  6  5  0  0  0  0  0  0  0  0999 V2000
    1.5000   -1.2990    0.0000 O   0  0  0  0  0  0  0  0  0  0  0  0
    0.7500    0.0000    0.0000 C   0  0  0  0  0  0  0  0  0  0  0  0
    1.5000    1.2990    0.0000 C   0  0  0  0  0  0  0  0  0  0  0  0
   -0.7500   -0.0000    0.0000 C   0  0  0  0  0  0  0  0  0  0  0  0
   -1.5000    1.2990    0.0000 O   0  0  0  0  0  0  0  0  0  0  0  0
   -1.5000   -1.2990    0.0000 O   0  0  0  0  0  0  0  0  0  0  0  0
  1  2  1  0
  2  3  1  6
  2  4  1  0
  4  5  2  0
  4  6  1  0
M  END
>  <rName>  (367) 
deamino-Ala_OH

>  <PQ_SYMBOL>  (367) 
deamino-Ala_OH

>  <FULL_NAME>  (367) 
(2S)-2-hydroxypropanoic acid

>  <IUPAC_CONDENSED>  (367) 
deamino-Ala(OH)

>  <IUPAC>  (367) 
(2S)-2-hydroxypropanoic acid

>  <TYPE>  (367) 
N-term cap

>  <CLASS>  (367) 
n_cap

>  <ANALOG>  (367) 
X

>  <MOL_WT>  (367) 
90.07799999999999

>  <LOGP>  (367) 
-0.5482

>  <TPSA>  (367) 
57.53

>  <POPULARITY>  (367) 
15

>  <PROTECTED>  (367) 
FALSE

>  <SMILES>  (367) 
O[C@@H](C)C(=O)O

>  <INCHIKEY>  (367) 
JVTAAEKCZFNVCJ-REOHCLBHSA-N

$$$$
deamino-Cys
     RDKit          2D

  6  5  0  0  0  0  0  0  0  0999 V2000
    2.8748   -0.2197    0.0000 S   0  0  0  0  0  0  0  0  0  0  0  0
    1.4825    0.3386    0.0000 C   0  0  0  0  0  0  0  0  0  0  0  0
    0.3029   -0.5880    0.0000 C   0  0  0  0  0  0  0  0  0  0  0  0
   -1.0893   -0.0297    0.0000 C   0  0  0  0  0  0  0  0  0  0  0  0
   -1.3020    1.4551    0.0000 O   0  0  0  0  0  0  0  0  0  0  0  0
   -2.2689   -0.9563    0.0000 O   0  0  0  0  0  0  0  0  0  0  0  0
  1  2  1  0
  2  3  1  0
  3  4  1  0
  4  5  2  0
  4  6  1  0
M  END
>  <rName>  (368) 
deamino-Cys

>  <PQ_SYMBOL>  (368) 
deamino-Cys

>  <FULL_NAME>  (368) 
Deamino-Cysteine

>  <IUPAC_CONDENSED>  (368) 
deamino-Cys

>  <IUPAC>  (368) 
3-sulfanylpropanoic acid

>  <TYPE>  (368) 
N-term cap

>  <CLASS>  (368) 
n_cap

>  <ANALOG>  (368) 
X

>  <MOL_WT>  (368) 
106.14599999999999

>  <LOGP>  (368) 
0.39089999999999997

>  <TPSA>  (368) 
37.3

>  <POPULARITY>  (368) 
14.9

>  <PROTECTED>  (368) 
FALSE

>  <SMILES>  (368) 
SCCC(=O)O

>  <INCHIKEY>  (368) 
DKIDEFUBRARXTE-UHFFFAOYSA-N

$$$$
deamino-hPhe
     RDKit          2D

 12 12  0  0  0  0  0  0  0  0999 V2000
   -4.1178   -0.7050    0.0000 C   0  0  0  0  0  0  0  0  0  0  0  0
   -3.9402    0.7845    0.0000 C   0  0  0  0  0  0  0  0  0  0  0  0
   -2.5615    1.3754    0.0000 C   0  0  0  0  0  0  0  0  0  0  0  0
   -1.3604    0.4769    0.0000 C   0  0  0  0  0  0  0  0  0  0  0  0
   -1.5380   -1.0126    0.0000 C   0  0  0  0  0  0  0  0  0  0  0  0
   -2.9167   -1.6035    0.0000 C   0  0  0  0  0  0  0  0  0  0  0  0
    0.0183    1.0678    0.0000 C   0  0  0  0  0  0  0  0  0  0  0  0
    1.2194    0.1693    0.0000 C   0  0  0  0  0  0  0  0  0  0  0  0
    2.5981    0.7603    0.0000 C   0  0  0  0  0  0  0  0  0  0  0  0
    3.7992   -0.1382    0.0000 C   0  0  0  0  0  0  0  0  0  0  0  0
    3.6216   -1.6277    0.0000 O   0  0  0  0  0  0  0  0  0  0  0  0
    5.1779    0.4527    0.0000 O   0  0  0  0  0  0  0  0  0  0  0  0
  1  2  2  0
  2  3  1  0
  3  4  2  0
  4  5  1  0
  5  6  2  0
  4  7  1  0
  7  8  1  0
  8  9  1  0
  9 10  1  0
 10 11  2  0
 10 12  1  0
  6  1  1  0
M  END
>  <rName>  (369) 
deamino-hPhe

>  <PQ_SYMBOL>  (369) 
deamino-hPhe

>  <FULL_NAME>  (369) 
4-phenylbutanoic acid

>  <IUPAC_CONDENSED>  (369) 
deamino-hPhe

>  <IUPAC>  (369) 
4-phenylbutanoic acid

>  <TYPE>  (369) 
N-term cap

>  <CLASS>  (369) 
n_cap

>  <ANALOG>  (369) 
X

>  <MOL_WT>  (369) 
164.20399999999998

>  <LOGP>  (369) 
2.0939

>  <TPSA>  (369) 
37.3

>  <POPULARITY>  (369) 
14.5

>  <PROTECTED>  (369) 
FALSE

>  <SMILES>  (369) 
c1ccc(cc1)CCCC(=O)O

>  <INCHIKEY>  (369) 
OBKXEAXTFZPCHS-UHFFFAOYSA-N

$$$$
deamino-D-Phe_OH
     RDKit          2D

 12 12  0  0  0  0  0  0  0  0999 V2000
   -3.7882   -0.3665    0.0000 C   0  0  0  0  0  0  0  0  0  0  0  0
   -3.4088    1.0848    0.0000 C   0  0  0  0  0  0  0  0  0  0  0  0
   -1.9624    1.4819    0.0000 C   0  0  0  0  0  0  0  0  0  0  0  0
   -0.8952    0.4278    0.0000 C   0  0  0  0  0  0  0  0  0  0  0  0
   -1.2745   -1.0235    0.0000 C   0  0  0  0  0  0  0  0  0  0  0  0
   -2.7210   -1.4206    0.0000 C   0  0  0  0  0  0  0  0  0  0  0  0
    0.5513    0.8249    0.0000 C   0  0  0  0  0  0  0  0  0  0  0  0
    1.6184   -0.2292    0.0000 C   0  0  0  0  0  0  0  0  0  0  0  0
    1.2391   -1.6805    0.0000 O   0  0  0  0  0  0  0  0  0  0  0  0
    3.0649    0.1679    0.0000 C   0  0  0  0  0  0  0  0  0  0  0  0
    3.4442    1.6191    0.0000 O   0  0  0  0  0  0  0  0  0  0  0  0
    4.1321   -0.8862    0.0000 O   0  0  0  0  0  0  0  0  0  0  0  0
  1  2  2  0
  2  3  1  0
  3  4  2  0
  4  5  1  0
  5  6  2  0
  4  7  1  0
  7  8  1  0
  8  9  1  6
  8 10  1  0
 10 11  2  0
 10 12  1  0
  6  1  1  0
M  END
>  <rName>  (370) 
deamino-D-Phe_OH

>  <PQ_SYMBOL>  (370) 
deamino-D-Phe_OH

>  <FULL_NAME>  (370) 
(2R)-2-hydroxy-3-phenylpropanoic acid

>  <IUPAC_CONDENSED>  (370) 
deamino-D-Phe(OH)

>  <IUPAC>  (370) 
(2R)-2-hydroxy-3-phenylpropanoic acid

>  <TYPE>  (370) 
N-term cap

>  <CLASS>  (370) 
n_cap

>  <ANALOG>  (370) 
X

>  <MOL_WT>  (370) 
166.17599999999996

>  <LOGP>  (370) 
0.6745999999999999

>  <TPSA>  (370) 
57.53

>  <POPULARITY>  (370) 
12.5

>  <PROTECTED>  (370) 
FALSE

>  <SMILES>  (370) 
c1ccc(cc1)C[C@@H](O)C(=O)O

>  <INCHIKEY>  (370) 
VOXXWSYKYCBWHO-MRVPVSSYSA-N

$$$$
deamino-Phg_35diMe
     RDKit          2D

 12 12  0  0  0  0  0  0  0  0999 V2000
   -2.4852   -0.5113    0.0000 C   0  0  0  0  0  0  0  0  0  0  0  0
   -2.2622    0.9720    0.0000 C   0  0  0  0  0  0  0  0  0  0  0  0
   -3.4353    1.9068    0.0000 C   0  0  0  0  0  0  0  0  0  0  0  0
   -0.8661    1.5206    0.0000 C   0  0  0  0  0  0  0  0  0  0  0  0
    0.3070    0.5859    0.0000 C   0  0  0  0  0  0  0  0  0  0  0  0
    0.0840   -0.8975    0.0000 C   0  0  0  0  0  0  0  0  0  0  0  0
   -1.3120   -1.4460    0.0000 C   0  0  0  0  0  0  0  0  0  0  0  0
   -1.5350   -2.9294    0.0000 C   0  0  0  0  0  0  0  0  0  0  0  0
    1.7031    1.1345    0.0000 C   0  0  0  0  0  0  0  0  0  0  0  0
    2.8762    0.1997    0.0000 C   0  0  0  0  0  0  0  0  0  0  0  0
    2.6533   -1.2836    0.0000 O   0  0  0  0  0  0  0  0  0  0  0  0
    4.2723    0.7483    0.0000 O   0  0  0  0  0  0  0  0  0  0  0  0
  1  2  2  0
  2  3  1  0
  2  4  1  0
  4  5  2  0
  5  6  1  0
  6  7  2  0
  7  8  1  0
  5  9  1  0
  9 10  1  0
 10 11  2  0
 10 12  1  0
  7  1  1  0
M  END
>  <rName>  (371) 
deamino-Phg_35diMe

>  <PQ_SYMBOL>  (371) 
deamino-Phg_35diMe

>  <FULL_NAME>  (371) 
2-(3,5-dimethylphenyl)acetic acid

>  <IUPAC_CONDENSED>  (371) 
deamino-Phg(3,5-diMe)

>  <IUPAC>  (371) 
2-(3,5-dimethylphenyl)acetic acid

>  <TYPE>  (371) 
N-term cap

>  <CLASS>  (371) 
n_cap

>  <ANALOG>  (371) 
X

>  <MOL_WT>  (371) 
164.20399999999998

>  <LOGP>  (371) 
1.93054

>  <TPSA>  (371) 
37.3

>  <POPULARITY>  (371) 
8.7

>  <PROTECTED>  (371) 
FALSE

>  <SMILES>  (371) 
c1c(C)cc(cc1C)CC(=O)O

>  <INCHIKEY>  (371) 
HDNBKTWQBJJYPD-UHFFFAOYSA-N

$$$$
deamino-Gly_CN
     RDKit          2D

  6  5  0  0  0  0  0  0  0  0999 V2000
   -2.8748   -0.2197    0.0000 N   0  0  0  0  0  0  0  0  0  0  0  0
   -1.4825    0.3386    0.0000 C   0  0  0  0  0  0  0  0  0  0  0  0
   -0.0903    0.8969    0.0000 C   0  0  0  0  0  0  0  0  0  0  0  0
    1.0893   -0.0297    0.0000 C   0  0  0  0  0  0  0  0  0  0  0  0
    0.8767   -1.5146    0.0000 O   0  0  0  0  0  0  0  0  0  0  0  0
    2.4816    0.5285    0.0000 O   0  0  0  0  0  0  0  0  0  0  0  0
  1  2  3  0
  2  3  1  0
  3  4  1  0
  4  5  2  0
  4  6  1  0
M  END
>  <rName>  (372) 
deamino-Gly_CN

>  <PQ_SYMBOL>  (372) 
deamino-Gly_CN

>  <FULL_NAME>  (372) 
2-cyanoacetic acid

>  <IUPAC_CONDENSED>  (372) 
deamino-Gly(CN)

>  <IUPAC>  (372) 
2-cyanoacetic acid

>  <TYPE>  (372) 
N-term cap

>  <CLASS>  (372) 
n_cap

>  <ANALOG>  (372) 
X

>  <MOL_WT>  (372) 
85.06199999999998

>  <LOGP>  (372) 
-0.015320000000000056

>  <TPSA>  (372) 
61.09

>  <POPULARITY>  (372) 
11.5

>  <PROTECTED>  (372) 
FALSE

>  <SMILES>  (372) 
N#CCC(=O)O

>  <INCHIKEY>  (372) 
MLIREBYILWEBDM-UHFFFAOYSA-N

$$$$
deamino-Gly_cPent
     RDKit          2D

  9  9  0  0  0  0  0  0  0  0999 V2000
   -2.3794   -1.0606    0.0000 C   0  0  0  0  0  0  0  0  0  0  0  0
   -0.8806   -1.0024    0.0000 C   0  0  0  0  0  0  0  0  0  0  0  0
   -0.4728    0.4411    0.0000 C   0  0  0  0  0  0  0  0  0  0  0  0
   -1.7196    1.2750    0.0000 C   0  0  0  0  0  0  0  0  0  0  0  0
   -2.8980    0.3469    0.0000 C   0  0  0  0  0  0  0  0  0  0  0  0
    0.9347    0.9597    0.0000 C   0  0  0  0  0  0  0  0  0  0  0  0
    2.0876   -0.0000    0.0000 C   0  0  0  0  0  0  0  0  0  0  0  0
    1.8329   -1.4782    0.0000 O   0  0  0  0  0  0  0  0  0  0  0  0
    3.4951    0.5186    0.0000 O   0  0  0  0  0  0  0  0  0  0  0  0
  1  2  1  0
  2  3  1  0
  3  4  1  0
  4  5  1  0
  3  6  1  0
  6  7  1  0
  7  8  2  0
  7  9  1  0
  5  1  1  0
M  END
>  <rName>  (373) 
deamino-Gly_cPent

>  <PQ_SYMBOL>  (373) 
deamino-Gly_cPent

>  <FULL_NAME>  (373) 
2-cyclopentylacetic acid

>  <IUPAC_CONDENSED>  (373) 
deamino-Gly(cPent)

>  <IUPAC>  (373) 
2-cyclopentylacetic acid

>  <TYPE>  (373) 
N-term cap

>  <CLASS>  (373) 
n_cap

>  <ANALOG>  (373) 
X

>  <MOL_WT>  (373) 
128.171

>  <LOGP>  (373) 
1.6513

>  <TPSA>  (373) 
37.3

>  <POPULARITY>  (373) 
12.3

>  <PROTECTED>  (373) 
FALSE

>  <SMILES>  (373) 
C1CC(CC1)CC(=O)O

>  <INCHIKEY>  (373) 
YVHAIVPPUIZFBA-UHFFFAOYSA-N

$$$$
deamino-Gly_OH
     RDKit          2D

  5  4  0  0  0  0  0  0  0  0999 V2000
    0.5196    1.5000    0.0000 O   0  0  0  0  0  0  0  0  0  0  0  0
    0.5196   -0.0000    0.0000 C   0  0  0  0  0  0  0  0  0  0  0  0
    1.8187   -0.7500    0.0000 O   0  0  0  0  0  0  0  0  0  0  0  0
   -0.7794   -0.7500    0.0000 C   0  0  0  0  0  0  0  0  0  0  0  0
   -2.0785    0.0000    0.0000 O   0  0  0  0  0  0  0  0  0  0  0  0
  1  2  2  0
  2  3  1  0
  2  4  1  0
  4  5  1  0
M  END
>  <rName>  (374) 
deamino-Gly_OH

>  <PQ_SYMBOL>  (374) 
deamino-Gly_OH

>  <FULL_NAME>  (374) 
2-hydroxyacetic acid

>  <IUPAC_CONDENSED>  (374) 
deamino-Gly(OH)

>  <IUPAC>  (374) 
2-hydroxyacetic acid

>  <TYPE>  (374) 
C-term cap

>  <CLASS>  (374) 
c_cap

>  <ANALOG>  (374) 
X

>  <MOL_WT>  (374) 
76.051

>  <LOGP>  (374) 
-0.9367000000000001

>  <TPSA>  (374) 
57.53

>  <POPULARITY>  (374) 
14.9

>  <PROTECTED>  (374) 
FALSE

>  <SMILES>  (374) 
O=C(O)CO

>  <INCHIKEY>  (374) 
AEMRFAOFKBGASW-UHFFFAOYSA-N

$$$$
deamino-Gly_tBu
     RDKit          2D

  8  7  0  0  0  0  0  0  0  0999 V2000
   -1.8975    1.3780    0.0000 C   0  0  0  0  0  0  0  0  0  0  0  0
   -1.1374    0.0849    0.0000 C   0  0  0  0  0  0  0  0  0  0  0  0
   -0.3772   -1.2083    0.0000 C   0  0  0  0  0  0  0  0  0  0  0  0
   -2.4305   -0.6752    0.0000 C   0  0  0  0  0  0  0  0  0  0  0  0
    0.1558    0.8450    0.0000 C   0  0  0  0  0  0  0  0  0  0  0  0
    1.4606    0.1051    0.0000 C   0  0  0  0  0  0  0  0  0  0  0  0
    1.4723   -1.3948    0.0000 O   0  0  0  0  0  0  0  0  0  0  0  0
    2.7538    0.8653    0.0000 O   0  0  0  0  0  0  0  0  0  0  0  0
  1  2  1  0
  2  3  1  0
  2  4  1  0
  2  5  1  0
  5  6  1  0
  6  7  2  0
  6  8  1  0
M  END
>  <rName>  (375) 
deamino-Gly_tBu

>  <PQ_SYMBOL>  (375) 
deamino-Gly_tBu

>  <FULL_NAME>  (375) 
3,3-dimethylbutanoic acid

>  <IUPAC_CONDENSED>  (375) 
deamino-Gly(tBu)

>  <IUPAC>  (375) 
3,3-dimethylbutanoic acid

>  <TYPE>  (375) 
N-term cap

>  <CLASS>  (375) 
n_cap

>  <ANALOG>  (375) 
X

>  <MOL_WT>  (375) 
116.15999999999998

>  <LOGP>  (375) 
1.5072

>  <TPSA>  (375) 
37.3

>  <POPULARITY>  (375) 
15

>  <PROTECTED>  (375) 
FALSE

>  <SMILES>  (375) 
CC(C)(C)CC(=O)O

>  <INCHIKEY>  (375) 
MLMQPDHYNJCQAO-UHFFFAOYSA-N

$$$$
deamino-Gly_thien2yl
     RDKit          2D

  9  9  0  0  0  0  0  0  0  0999 V2000
   -2.3794   -1.0606    0.0000 C   0  0  0  0  0  0  0  0  0  0  0  0
   -0.8806   -1.0024    0.0000 S   0  0  0  0  0  0  0  0  0  0  0  0
   -0.4728    0.4411    0.0000 C   0  0  0  0  0  0  0  0  0  0  0  0
   -1.7196    1.2750    0.0000 C   0  0  0  0  0  0  0  0  0  0  0  0
   -2.8980    0.3469    0.0000 C   0  0  0  0  0  0  0  0  0  0  0  0
    0.9347    0.9597    0.0000 C   0  0  0  0  0  0  0  0  0  0  0  0
    2.0876   -0.0000    0.0000 C   0  0  0  0  0  0  0  0  0  0  0  0
    1.8329   -1.4782    0.0000 O   0  0  0  0  0  0  0  0  0  0  0  0
    3.4951    0.5186    0.0000 O   0  0  0  0  0  0  0  0  0  0  0  0
  1  2  1  0
  2  3  1  0
  3  4  2  0
  4  5  1  0
  3  6  1  0
  6  7  1  0
  7  8  2  0
  7  9  1  0
  5  1  2  0
M  END
>  <rName>  (376) 
deamino-Gly_thien2yl

>  <PQ_SYMBOL>  (376) 
deamino-Gly_thien2yl

>  <FULL_NAME>  (376) 
2-(thiophen-2-yl)acetic acid

>  <IUPAC_CONDENSED>  (376) 
deamino-Gly(thien-2-yl)

>  <IUPAC>  (376) 
2-(thiophen-2-yl)acetic acid

>  <TYPE>  (376) 
N-term cap

>  <CLASS>  (376) 
n_cap

>  <ANALOG>  (376) 
X

>  <MOL_WT>  (376) 
142.17899999999997

>  <LOGP>  (376) 
1.3752

>  <TPSA>  (376) 
37.3

>  <POPULARITY>  (376) 
10.3

>  <PROTECTED>  (376) 
FALSE

>  <SMILES>  (376) 
c1sc(cc1)CC(=O)O

>  <INCHIKEY>  (376) 
SMJRBWINMFUUDS-UHFFFAOYSA-N

$$$$
deamino-Phg_4Cl
     RDKit          2D

 11 11  0  0  0  0  0  0  0  0999 V2000
   -4.0738   -0.6025    0.0000 Cl  0  0  0  0  0  0  0  0  0  0  0  0
   -2.6249   -0.2143    0.0000 C   0  0  0  0  0  0  0  0  0  0  0  0
   -2.2367    1.2346    0.0000 C   0  0  0  0  0  0  0  0  0  0  0  0
   -0.7878    1.6228    0.0000 C   0  0  0  0  0  0  0  0  0  0  0  0
    0.2729    0.5622    0.0000 C   0  0  0  0  0  0  0  0  0  0  0  0
   -0.1153   -0.8867    0.0000 C   0  0  0  0  0  0  0  0  0  0  0  0
   -1.5642   -1.2750    0.0000 C   0  0  0  0  0  0  0  0  0  0  0  0
    1.7218    0.9504    0.0000 C   0  0  0  0  0  0  0  0  0  0  0  0
    2.7824   -0.1103    0.0000 C   0  0  0  0  0  0  0  0  0  0  0  0
    2.3942   -1.5592    0.0000 O   0  0  0  0  0  0  0  0  0  0  0  0
    4.2313    0.2780    0.0000 O   0  0  0  0  0  0  0  0  0  0  0  0
  1  2  1  0
  2  3  1  0
  3  4  2  0
  4  5  1  0
  5  6  2  0
  6  7  1  0
  5  8  1  0
  8  9  1  0
  9 10  2  0
  9 11  1  0
  7  2  2  0
M  END
>  <rName>  (377) 
deamino-Phg_4Cl

>  <PQ_SYMBOL>  (377) 
deamino-Phg_4Cl

>  <FULL_NAME>  (377) 
2-(4-chlorophenyl)acetic acid

>  <IUPAC_CONDENSED>  (377) 
deamino-Phg(4-Cl)

>  <IUPAC>  (377) 
2-(4-chlorophenyl)acetic acid

>  <TYPE>  (377) 
N-term cap

>  <CLASS>  (377) 
n_cap

>  <ANALOG>  (377) 
X

>  <MOL_WT>  (377) 
170.59499999999997

>  <LOGP>  (377) 
1.9670999999999996

>  <TPSA>  (377) 
37.3

>  <POPULARITY>  (377) 
10.4

>  <PROTECTED>  (377) 
FALSE

>  <SMILES>  (377) 
Clc1ccc(cc1)CC(=O)O

>  <INCHIKEY>  (377) 
CDPKJZJVTHSESZ-UHFFFAOYSA-N

$$$$
deamino-Leu
     RDKit          2D

  8  7  0  0  0  0  0  0  0  0999 V2000
   -3.1182    0.9820    0.0000 C   0  0  0  0  0  0  0  0  0  0  0  0
   -1.9843    0.0000    0.0000 C   0  0  0  0  0  0  0  0  0  0  0  0
   -2.2678   -1.4730    0.0000 C   0  0  0  0  0  0  0  0  0  0  0  0
   -0.5669    0.4910    0.0000 C   0  0  0  0  0  0  0  0  0  0  0  0
    0.5669   -0.4910    0.0000 C   0  0  0  0  0  0  0  0  0  0  0  0
    1.9843    0.0000    0.0000 C   0  0  0  0  0  0  0  0  0  0  0  0
    2.2678    1.4730    0.0000 O   0  0  0  0  0  0  0  0  0  0  0  0
    3.1182   -0.9820    0.0000 O   0  0  0  0  0  0  0  0  0  0  0  0
  1  2  1  0
  2  3  1  0
  2  4  1  0
  4  5  1  0
  5  6  1  0
  6  7  2  0
  6  8  1  0
M  END
>  <rName>  (378) 
deamino-Leu

>  <PQ_SYMBOL>  (378) 
deamino-Leu

>  <FULL_NAME>  (378) 
Deamino-Leucine

>  <IUPAC_CONDENSED>  (378) 
deamino-Leu

>  <IUPAC>  (378) 
4-methylpentanoic acid

>  <TYPE>  (378) 
N-term cap

>  <CLASS>  (378) 
n_cap

>  <ANALOG>  (378) 
X

>  <MOL_WT>  (378) 
116.15999999999998

>  <LOGP>  (378) 
1.5072

>  <TPSA>  (378) 
37.3

>  <POPULARITY>  (378) 
14.6

>  <PROTECTED>  (378) 
FALSE

>  <SMILES>  (378) 
CC(C)CCC(=O)O

>  <INCHIKEY>  (378) 
FGKJLKRYENPLQH-UHFFFAOYSA-N

$$$$
deamino-Leu_OH
     RDKit          2D

  9  8  0  0  0  0  0  0  0  0999 V2000
   -3.1703    1.1447    0.0000 C   0  0  0  0  0  0  0  0  0  0  0  0
   -2.0193    0.1828    0.0000 C   0  0  0  0  0  0  0  0  0  0  0  0
   -2.2769   -1.2950    0.0000 C   0  0  0  0  0  0  0  0  0  0  0  0
   -0.6108    0.6986    0.0000 C   0  0  0  0  0  0  0  0  0  0  0  0
    0.5402   -0.2633    0.0000 C   0  0  0  0  0  0  0  0  0  0  0  0
    0.2826   -1.7410    0.0000 O   0  0  0  0  0  0  0  0  0  0  0  0
    1.9487    0.2525    0.0000 C   0  0  0  0  0  0  0  0  0  0  0  0
    2.2062    1.7302    0.0000 O   0  0  0  0  0  0  0  0  0  0  0  0
    3.0997   -0.7094    0.0000 O   0  0  0  0  0  0  0  0  0  0  0  0
  1  2  1  0
  2  3  1  0
  2  4  1  0
  4  5  1  0
  5  6  1  1
  5  7  1  0
  7  8  2  0
  7  9  1  0
M  END
>  <rName>  (379) 
deamino-Leu_OH

>  <PQ_SYMBOL>  (379) 
deamino-Leu_OH

>  <FULL_NAME>  (379) 
(2S)-2-hydroxy-4-methylpentanoic acid

>  <IUPAC_CONDENSED>  (379) 
deamino-Leu(OH)

>  <IUPAC>  (379) 
(2S)-2-hydroxy-4-methylpentanoic acid

>  <TYPE>  (379) 
N-term cap

>  <CLASS>  (379) 
n_cap

>  <ANALOG>  (379) 
X

>  <MOL_WT>  (379) 
132.159

>  <LOGP>  (379) 
0.478

>  <TPSA>  (379) 
57.53

>  <POPULARITY>  (379) 
11

>  <PROTECTED>  (379) 
FALSE

>  <SMILES>  (379) 
CC(C)C[C@H](O)C(=O)O

>  <INCHIKEY>  (379) 
LVRFTAZAXQPQHI-YFKPBYRVSA-N

$$$$
deamino-Val_OH
     RDKit          2D

  8  7  0  0  0  0  0  0  0  0999 V2000
   -2.5981    0.5625    0.0000 C   0  0  0  0  0  0  0  0  0  0  0  0
   -1.2990   -0.1875    0.0000 C   0  0  0  0  0  0  0  0  0  0  0  0
   -1.2990   -1.6875    0.0000 C   0  0  0  0  0  0  0  0  0  0  0  0
    0.0000    0.5625    0.0000 C   0  0  0  0  0  0  0  0  0  0  0  0
    0.0000    2.0625    0.0000 O   0  0  0  0  0  0  0  0  0  0  0  0
    1.2990   -0.1875    0.0000 C   0  0  0  0  0  0  0  0  0  0  0  0
    1.2990   -1.6875    0.0000 O   0  0  0  0  0  0  0  0  0  0  0  0
    2.5981    0.5625    0.0000 O   0  0  0  0  0  0  0  0  0  0  0  0
  1  2  1  0
  2  3  1  0
  2  4  1  0
  4  5  1  6
  4  6  1  0
  6  7  2  0
  6  8  1  0
M  END
>  <rName>  (380) 
deamino-Val_OH

>  <PQ_SYMBOL>  (380) 
deamino-Val_OH

>  <FULL_NAME>  (380) 
(2S)-2-hydroxy-3-methylbutanoic acid

>  <IUPAC_CONDENSED>  (380) 
deamino-Val(OH)

>  <IUPAC>  (380) 
(2S)-2-hydroxy-3-methylbutanoic acid

>  <TYPE>  (380) 
N-term cap

>  <CLASS>  (380) 
n_cap

>  <ANALOG>  (380) 
X

>  <MOL_WT>  (380) 
118.13199999999998

>  <LOGP>  (380) 
0.08789999999999998

>  <TPSA>  (380) 
57.53

>  <POPULARITY>  (380) 
12.2

>  <PROTECTED>  (380) 
FALSE

>  <SMILES>  (380) 
CC(C)[C@H](O)C(=O)O

>  <INCHIKEY>  (380) 
NGEWQZIDQIYUNV-BYPYZUCNSA-N

$$$$
-Bn
     RDKit          2D

  7  7  0  0  0  0  0  0  0  0999 V2000
    2.5714    0.0000    0.0000 C   0  0  0  0  0  0  0  0  0  0  0  0
    1.0714   -0.0000    0.0000 C   0  0  0  0  0  0  0  0  0  0  0  0
    0.3214   -1.2990    0.0000 C   0  0  0  0  0  0  0  0  0  0  0  0
   -1.1786   -1.2990    0.0000 C   0  0  0  0  0  0  0  0  0  0  0  0
   -1.9286    0.0000    0.0000 C   0  0  0  0  0  0  0  0  0  0  0  0
   -1.1786    1.2990    0.0000 C   0  0  0  0  0  0  0  0  0  0  0  0
    0.3214    1.2990    0.0000 C   0  0  0  0  0  0  0  0  0  0  0  0
  1  2  1  0
  2  3  2  0
  3  4  1  0
  4  5  2  0
  5  6  1  0
  6  7  2  0
  7  2  1  0
M  END
>  <rName>  (381) 
-Bn

>  <PQ_SYMBOL>  (381) 
-Bn

>  <FULL_NAME>  (381) 
C-Terminal toluene

>  <IUPAC_CONDENSED>  (381) 
Bn

>  <IUPAC>  (381) 
methylbenzene

>  <TYPE>  (381) 
C-term cap

>  <CLASS>  (381) 
c_cap

>  <ANALOG>  (381) 
X

>  <MOL_WT>  (381) 
92.14099999999999

>  <LOGP>  (381) 
1.99502

>  <TPSA>  (381) 
0

>  <POPULARITY>  (381) 
15

>  <PROTECTED>  (381) 
FALSE

>  <SMILES>  (381) 
Cc1ccccc1

>  <INCHIKEY>  (381) 
YXFVVABEGXRONW-UHFFFAOYSA-N

$$$$
-Et
     RDKit          2D

  2  1  0  0  0  0  0  0  0  0999 V2000
   -0.7500    0.0000    0.0000 C   0  0  0  0  0  0  0  0  0  0  0  0
    0.7500   -0.0000    0.0000 C   0  0  0  0  0  0  0  0  0  0  0  0
  1  2  1  0
M  END
>  <rName>  (382) 
-Et

>  <PQ_SYMBOL>  (382) 
-Et

>  <FULL_NAME>  (382) 
C-Terminal ethyl

>  <IUPAC_CONDENSED>  (382) 
Et

>  <IUPAC>  (382) 
ethane

>  <TYPE>  (382) 
C-term cap

>  <CLASS>  (382) 
c_cap

>  <ANALOG>  (382) 
X

>  <MOL_WT>  (382) 
30.07

>  <LOGP>  (382) 
1.0262

>  <TPSA>  (382) 
0

>  <POPULARITY>  (382) 
2

>  <PROTECTED>  (382) 
FALSE

>  <SMILES>  (382) 
CC

>  <INCHIKEY>  (382) 
OTMSDBZUPAUEDD-UHFFFAOYSA-N

$$$$
-Me
     RDKit          2D

  1  0  0  0  0  0  0  0  0  0999 V2000
    0.0000    0.0000    0.0000 C   0  0  0  0  0  0  0  0  0  0  0  0
M  END
>  <rName>  (383) 
-Me

>  <PQ_SYMBOL>  (383) 
-Me

>  <FULL_NAME>  (383) 
C-Terminal methyl

>  <IUPAC_CONDENSED>  (383) 
Me

>  <IUPAC>  (383) 
methane

>  <TYPE>  (383) 
C-term cap

>  <CLASS>  (383) 
c_cap

>  <ANALOG>  (383) 
X

>  <MOL_WT>  (383) 
16.043

>  <LOGP>  (383) 
0.6361

>  <TPSA>  (383) 
0

>  <POPULARITY>  (383) 
2

>  <PROTECTED>  (383) 
FALSE

>  <SMILES>  (383) 
C

>  <INCHIKEY>  (383) 
VNWKTOKETHGBQD-UHFFFAOYSA-N

$$$$
-OBn
     RDKit          2D

  8  8  0  0  0  0  0  0  0  0999 V2000
   -3.0851    0.4695    0.0000 O   0  0  0  0  0  0  0  0  0  0  0  0
   -2.0677   -0.6327    0.0000 C   0  0  0  0  0  0  0  0  0  0  0  0
   -0.6045   -0.3028    0.0000 C   0  0  0  0  0  0  0  0  0  0  0  0
   -0.1586    1.1294    0.0000 C   0  0  0  0  0  0  0  0  0  0  0  0
    1.3047    1.4594    0.0000 C   0  0  0  0  0  0  0  0  0  0  0  0
    2.3221    0.3572    0.0000 C   0  0  0  0  0  0  0  0  0  0  0  0
    1.8762   -1.0750    0.0000 C   0  0  0  0  0  0  0  0  0  0  0  0
    0.4129   -1.4050    0.0000 C   0  0  0  0  0  0  0  0  0  0  0  0
  1  2  1  0
  2  3  1  0
  3  4  2  0
  4  5  1  0
  5  6  2  0
  6  7  1  0
  7  8  2  0
  8  3  1  0
M  END
>  <rName>  (384) 
-OBn

>  <PQ_SYMBOL>  (384) 
-OBn

>  <FULL_NAME>  (384) 
C-Terminal phenylmethanol

>  <IUPAC_CONDENSED>  (384) 
OBn

>  <IUPAC>  (384) 
1-phenylmethanol

>  <TYPE>  (384) 
C-term cap

>  <CLASS>  (384) 
c_cap

>  <ANALOG>  (384) 
X

>  <MOL_WT>  (384) 
108.13999999999997

>  <LOGP>  (384) 
1.1789

>  <TPSA>  (384) 
20.23

>  <POPULARITY>  (384) 
14.8

>  <PROTECTED>  (384) 
FALSE

>  <SMILES>  (384) 
OCc1ccccc1

>  <INCHIKEY>  (384) 
WVDDGKGOMKODPV-UHFFFAOYSA-N

$$$$
-OMe
     RDKit          2D

  2  1  0  0  0  0  0  0  0  0999 V2000
   -0.7500    0.0000    0.0000 C   0  0  0  0  0  0  0  0  0  0  0  0
    0.7500   -0.0000    0.0000 O   0  0  0  0  0  0  0  0  0  0  0  0
  1  2  1  0
M  END
>  <rName>  (385) 
-OMe

>  <PQ_SYMBOL>  (385) 
-OMe

>  <FULL_NAME>  (385) 
C-Terminal methanol

>  <IUPAC_CONDENSED>  (385) 
OMe

>  <IUPAC>  (385) 
methanol

>  <TYPE>  (385) 
C-term cap

>  <CLASS>  (385) 
c_cap

>  <ANALOG>  (385) 
X

>  <MOL_WT>  (385) 
32.042

>  <LOGP>  (385) 
-0.3915

>  <TPSA>  (385) 
20.23

>  <POPULARITY>  (385) 
2

>  <PROTECTED>  (385) 
FALSE

>  <SMILES>  (385) 
CO

>  <INCHIKEY>  (385) 
OKKJLVBELUTLKV-UHFFFAOYSA-N

$$$$
Bn-
     RDKit          2D

  8  8  0  0  0  0  0  0  0  0999 V2000
   -2.3221   -0.3572    0.0000 C   0  0  0  0  0  0  0  0  0  0  0  0
   -1.8762    1.0750    0.0000 C   0  0  0  0  0  0  0  0  0  0  0  0
   -0.4129    1.4050    0.0000 C   0  0  0  0  0  0  0  0  0  0  0  0
    0.6045    0.3028    0.0000 C   0  0  0  0  0  0  0  0  0  0  0  0
    0.1586   -1.1294    0.0000 C   0  0  0  0  0  0  0  0  0  0  0  0
   -1.3047   -1.4594    0.0000 C   0  0  0  0  0  0  0  0  0  0  0  0
    2.0677    0.6327    0.0000 C   0  0  0  0  0  0  0  0  0  0  0  0
    3.0851   -0.4695    0.0000 O   0  0  0  0  0  0  0  0  0  0  0  0
  1  2  2  0
  2  3  1  0
  3  4  2  0
  4  5  1  0
  5  6  2  0
  4  7  1  0
  7  8  1  0
  6  1  1  0
M  END
>  <rName>  (386) 
Bn-

>  <PQ_SYMBOL>  (386) 
Bn-

>  <FULL_NAME>  (386) 
N-Terminal toluene

>  <IUPAC_CONDENSED>  (386) 
Bn-

>  <IUPAC>  (386) 
1-phenylmethanol

>  <TYPE>  (386) 
N-term cap

>  <CLASS>  (386) 
n_cap

>  <ANALOG>  (386) 
X

>  <MOL_WT>  (386) 
108.13999999999997

>  <LOGP>  (386) 
1.1788999999999998

>  <TPSA>  (386) 
20.23

>  <POPULARITY>  (386) 
15

>  <PROTECTED>  (386) 
FALSE

>  <SMILES>  (386) 
c1ccc(cc1)CO

>  <INCHIKEY>  (386) 
WVDDGKGOMKODPV-UHFFFAOYSA-N

$$$$
Cbz
     RDKit          2D

 11 11  0  0  0  0  0  0  0  0999 V2000
   -3.6904   -0.4000    0.0000 C   0  0  0  0  0  0  0  0  0  0  0  0
   -3.2643    1.0382    0.0000 C   0  0  0  0  0  0  0  0  0  0  0  0
   -1.8057    1.3883    0.0000 C   0  0  0  0  0  0  0  0  0  0  0  0
   -0.7732    0.3002    0.0000 C   0  0  0  0  0  0  0  0  0  0  0  0
   -1.1993   -1.1380    0.0000 C   0  0  0  0  0  0  0  0  0  0  0  0
   -2.6579   -1.4881    0.0000 C   0  0  0  0  0  0  0  0  0  0  0  0
    0.6853    0.6503    0.0000 C   0  0  0  0  0  0  0  0  0  0  0  0
    1.7178   -0.4378    0.0000 O   0  0  0  0  0  0  0  0  0  0  0  0
    3.1764   -0.0877    0.0000 C   0  0  0  0  0  0  0  0  0  0  0  0
    3.6025    1.3505    0.0000 O   0  0  0  0  0  0  0  0  0  0  0  0
    4.2089   -1.1758    0.0000 O   0  0  0  0  0  0  0  0  0  0  0  0
  1  2  2  0
  2  3  1  0
  3  4  2  0
  4  5  1  0
  5  6  2  0
  4  7  1  0
  7  8  1  0
  8  9  1  0
  9 10  2  0
  9 11  1  0
  6  1  1  0
M  END
>  <rName>  (387) 
Cbz

>  <PQ_SYMBOL>  (387) 
Cbz

>  <FULL_NAME>  (387) 
Carboxybenzyl

>  <IUPAC_CONDENSED>  (387) 
Cbz

>  <IUPAC>  (387) 
benzyl hydrogen carbonate

>  <TYPE>  (387) 
N-term cap

>  <CLASS>  (387) 
n_cap

>  <ANALOG>  (387) 
X

>  <MOL_WT>  (387) 
152.14899999999997

>  <LOGP>  (387) 
1.8812000000000002

>  <TPSA>  (387) 
46.53

>  <POPULARITY>  (387) 
13.4

>  <PROTECTED>  (387) 
FALSE

>  <SMILES>  (387) 
c1ccc(cc1)COC(=O)O

>  <INCHIKEY>  (387) 
NJAPCAIWQRPQPY-UHFFFAOYSA-N

$$$$
deamino-Chg
     RDKit          2D

 10 10  0  0  0  0  0  0  0  0999 V2000
   -3.0048   -0.4910    0.0000 C   0  0  0  0  0  0  0  0  0  0  0  0
   -2.7213    0.9820    0.0000 C   0  0  0  0  0  0  0  0  0  0  0  0
   -1.3040    1.4730    0.0000 C   0  0  0  0  0  0  0  0  0  0  0  0
   -0.1701    0.4910    0.0000 C   0  0  0  0  0  0  0  0  0  0  0  0
   -0.4536   -0.9820    0.0000 C   0  0  0  0  0  0  0  0  0  0  0  0
   -1.8709   -1.4730    0.0000 C   0  0  0  0  0  0  0  0  0  0  0  0
    1.2473    0.9820    0.0000 C   0  0  0  0  0  0  0  0  0  0  0  0
    2.3812   -0.0000    0.0000 C   0  0  0  0  0  0  0  0  0  0  0  0
    2.0977   -1.4730    0.0000 O   0  0  0  0  0  0  0  0  0  0  0  0
    3.7985    0.4910    0.0000 O   0  0  0  0  0  0  0  0  0  0  0  0
  1  2  1  0
  2  3  1  0
  3  4  1  0
  4  5  1  0
  5  6  1  0
  4  7  1  0
  7  8  1  0
  8  9  2  0
  8 10  1  0
  6  1  1  0
M  END
>  <rName>  (388) 
deamino-Chg

>  <PQ_SYMBOL>  (388) 
deamino-Chg

>  <FULL_NAME>  (388) 
2-cyclohexylacetic acid

>  <IUPAC_CONDENSED>  (388) 
deamino-Chg

>  <IUPAC>  (388) 
2-cyclohexylacetic acid

>  <TYPE>  (388) 
N-term cap

>  <CLASS>  (388) 
n_cap

>  <ANALOG>  (388) 
X

>  <MOL_WT>  (388) 
142.198

>  <LOGP>  (388) 
2.0414

>  <TPSA>  (388) 
37.3

>  <POPULARITY>  (388) 
15

>  <PROTECTED>  (388) 
FALSE

>  <SMILES>  (388) 
C1CCC(CC1)CC(=O)O

>  <INCHIKEY>  (388) 
LJOODBDWMQKMFB-UHFFFAOYSA-N

$$$$
deamino-Dip
     RDKit          2D

 17 18  0  0  0  0  0  0  0  0999 V2000
    4.5202   -0.4372    0.0000 C   0  0  0  0  0  0  0  0  0  0  0  0
    3.4922   -1.5296    0.0000 C   0  0  0  0  0  0  0  0  0  0  0  0
    2.0322   -1.1855    0.0000 C   0  0  0  0  0  0  0  0  0  0  0  0
    1.6002    0.2509    0.0000 C   0  0  0  0  0  0  0  0  0  0  0  0
    2.6282    1.3433    0.0000 C   0  0  0  0  0  0  0  0  0  0  0  0
    4.0882    0.9992    0.0000 C   0  0  0  0  0  0  0  0  0  0  0  0
    0.1402    0.5950    0.0000 C   0  0  0  0  0  0  0  0  0  0  0  0
   -0.8878   -0.4973    0.0000 C   0  0  0  0  0  0  0  0  0  0  0  0
   -2.3478   -0.1533    0.0000 C   0  0  0  0  0  0  0  0  0  0  0  0
   -3.3757   -1.2456    0.0000 C   0  0  0  0  0  0  0  0  0  0  0  0
   -2.9437   -2.6821    0.0000 C   0  0  0  0  0  0  0  0  0  0  0  0
   -1.4837   -3.0261    0.0000 C   0  0  0  0  0  0  0  0  0  0  0  0
   -0.4557   -1.9338    0.0000 C   0  0  0  0  0  0  0  0  0  0  0  0
   -0.2918    2.0315    0.0000 C   0  0  0  0  0  0  0  0  0  0  0  0
   -1.7518    2.3755    0.0000 C   0  0  0  0  0  0  0  0  0  0  0  0
   -2.7798    1.2832    0.0000 O   0  0  0  0  0  0  0  0  0  0  0  0
   -2.1838    3.8120    0.0000 O   0  0  0  0  0  0  0  0  0  0  0  0
  1  2  2  0
  2  3  1  0
  3  4  2  0
  4  5  1  0
  5  6  2  0
  4  7  1  0
  7  8  1  0
  8  9  2  0
  9 10  1  0
 10 11  2  0
 11 12  1  0
 12 13  2  0
  7 14  1  0
 14 15  1  0
 15 16  2  0
 15 17  1  0
 13  8  1  0
  6  1  1  0
M  END
>  <rName>  (389) 
deamino-Dip

>  <PQ_SYMBOL>  (389) 
deamino-Dip

>  <FULL_NAME>  (389) 
3,3-diphenylpropanoic acid

>  <IUPAC_CONDENSED>  (389) 
deamino-Dip

>  <IUPAC>  (389) 
3,3-diphenylpropanoic acid

>  <TYPE>  (389) 
N-term cap

>  <CLASS>  (389) 
n_cap

>  <ANALOG>  (389) 
X

>  <MOL_WT>  (389) 
226.27499999999995

>  <LOGP>  (389) 
3.2932000000000015

>  <TPSA>  (389) 
37.3

>  <POPULARITY>  (389) 
10.3

>  <PROTECTED>  (389) 
FALSE

>  <SMILES>  (389) 
c2ccc(cc2)C(c1(ccccc1))CC(=O)O

>  <INCHIKEY>  (389) 
BZQGAPWJKAYCHR-UHFFFAOYSA-N

$$$$
deamino-Ncy
     RDKit          2D

  5  4  0  0  0  0  0  0  0  0999 V2000
   -2.0785    0.0000    0.0000 S   0  0  0  0  0  0  0  0  0  0  0  0
   -0.7794   -0.7500    0.0000 C   0  0  0  0  0  0  0  0  0  0  0  0
    0.5196   -0.0000    0.0000 C   0  0  0  0  0  0  0  0  0  0  0  0
    0.5196    1.5000    0.0000 O   0  0  0  0  0  0  0  0  0  0  0  0
    1.8187   -0.7500    0.0000 O   0  0  0  0  0  0  0  0  0  0  0  0
  1  2  1  0
  2  3  1  0
  3  4  2  0
  3  5  1  0
M  END
>  <rName>  (390) 
deamino-Ncy

>  <PQ_SYMBOL>  (390) 
deamino-Ncy

>  <FULL_NAME>  (390) 
2-sulfanylacetic acid

>  <IUPAC_CONDENSED>  (390) 
deamino-Ncy

>  <IUPAC>  (390) 
2-sulfanylacetic acid

>  <TYPE>  (390) 
N-term cap

>  <CLASS>  (390) 
n_cap

>  <ANALOG>  (390) 
X

>  <MOL_WT>  (390) 
92.11899999999999

>  <LOGP>  (390) 
0.0007999999999999674

>  <TPSA>  (390) 
37.3

>  <POPULARITY>  (390) 
12.9

>  <PROTECTED>  (390) 
FALSE

>  <SMILES>  (390) 
SCC(=O)O

>  <INCHIKEY>  (390) 
CWERGRDVMFNCDR-UHFFFAOYSA-N

$$$$
Et-
     RDKit          2D

  3  2  0  0  0  0  0  0  0  0999 V2000
   -1.2990   -0.2500    0.0000 C   0  0  0  0  0  0  0  0  0  0  0  0
    0.0000    0.5000    0.0000 C   0  0  0  0  0  0  0  0  0  0  0  0
    1.2990   -0.2500    0.0000 O   0  0  0  0  0  0  0  0  0  0  0  0
  1  2  1  0
  2  3  1  0
M  END
>  <rName>  (391) 
Et-

>  <PQ_SYMBOL>  (391) 
Et-

>  <FULL_NAME>  (391) 
N-Terminal ethyl

>  <IUPAC_CONDENSED>  (391) 
Et-

>  <IUPAC>  (391) 
ethanol

>  <TYPE>  (391) 
N-term cap

>  <CLASS>  (391) 
n_cap

>  <ANALOG>  (391) 
X

>  <MOL_WT>  (391) 
46.069

>  <LOGP>  (391) 
-0.0014000000000000123

>  <TPSA>  (391) 
20.23

>  <POPULARITY>  (391) 
2

>  <PROTECTED>  (391) 
FALSE

>  <SMILES>  (391) 
CCO

>  <INCHIKEY>  (391) 
LFQSCWFLJHTTHZ-UHFFFAOYSA-N

$$$$
deamino-Nva_OH
     RDKit          2D

  8  7  0  0  0  0  0  0  0  0999 V2000
    3.5551    0.5134    0.0000 C   0  0  0  0  0  0  0  0  0  0  0  0
    2.2862   -0.2864    0.0000 C   0  0  0  0  0  0  0  0  0  0  0  0
    0.9590    0.4126    0.0000 C   0  0  0  0  0  0  0  0  0  0  0  0
   -0.3100   -0.3873    0.0000 C   0  0  0  0  0  0  0  0  0  0  0  0
   -0.2517   -1.8862    0.0000 O   0  0  0  0  0  0  0  0  0  0  0  0
   -1.6371    0.3117    0.0000 C   0  0  0  0  0  0  0  0  0  0  0  0
   -1.6954    1.8105    0.0000 O   0  0  0  0  0  0  0  0  0  0  0  0
   -2.9061   -0.4882    0.0000 O   0  0  0  0  0  0  0  0  0  0  0  0
  1  2  1  0
  2  3  1  0
  3  4  1  0
  4  5  1  6
  4  6  1  0
  6  7  2  0
  6  8  1  0
M  END
>  <rName>  (392) 
deamino-Nva_OH

>  <PQ_SYMBOL>  (392) 
deamino-Nva_OH

>  <FULL_NAME>  (392) 
2-Hydroxypentanoic acid

>  <IUPAC_CONDENSED>  (392) 
deamino-Nva(OH)

>  <IUPAC>  (392) 
(2S)-2-hydroxypentanoic acid

>  <TYPE>  (392) 
N-term cap

>  <CLASS>  (392) 
n_cap

>  <ANALOG>  (392) 
X

>  <MOL_WT>  (392) 
118.13199999999998

>  <LOGP>  (392) 
0.23199999999999998

>  <TPSA>  (392) 
57.53

>  <POPULARITY>  (392) 
14.6

>  <PROTECTED>  (392) 
FALSE

>  <SMILES>  (392) 
CCC[C@H](O)C(=O)O

>  <INCHIKEY>  (392) 
JRHWHSJDIILJAT-BYPYZUCNSA-N

$$$$
Me-
     RDKit          2D

  2  1  0  0  0  0  0  0  0  0999 V2000
   -0.7500    0.0000    0.0000 C   0  0  0  0  0  0  0  0  0  0  0  0
    0.7500   -0.0000    0.0000 O   0  0  0  0  0  0  0  0  0  0  0  0
  1  2  1  0
M  END
>  <rName>  (393) 
Me-

>  <PQ_SYMBOL>  (393) 
Me-

>  <FULL_NAME>  (393) 
N-Terminal methyl

>  <IUPAC_CONDENSED>  (393) 
Me-

>  <IUPAC>  (393) 
methanol

>  <TYPE>  (393) 
N-term cap

>  <CLASS>  (393) 
n_cap

>  <ANALOG>  (393) 
X

>  <MOL_WT>  (393) 
32.042

>  <LOGP>  (393) 
-0.3915

>  <TPSA>  (393) 
20.23

>  <POPULARITY>  (393) 
2

>  <PROTECTED>  (393) 
FALSE

>  <SMILES>  (393) 
CO

>  <INCHIKEY>  (393) 
OKKJLVBELUTLKV-UHFFFAOYSA-N

$$$$
MsO
     RDKit          2D

  5  4  0  0  0  0  0  0  0  0999 V2000
    0.7500   -1.2990    0.0000 O   0  0  0  0  0  0  0  0  0  0  0  0
    0.0000   -0.0000    0.0000 S   0  0  0  0  0  0  0  0  0  0  0  0
   -0.7500    1.2990    0.0000 O   0  0  0  0  0  0  0  0  0  0  0  0
   -1.2990   -0.7500    0.0000 C   0  0  0  0  0  0  0  0  0  0  0  0
    1.2990    0.7500    0.0000 O   0  0  0  0  0  0  0  0  0  0  0  0
  1  2  2  0
  2  3  2  0
  2  4  1  0
  2  5  1  0
M  END
>  <rName>  (394) 
MsO

>  <PQ_SYMBOL>  (394) 
MsO

>  <FULL_NAME>  (394) 
Mesylate

>  <IUPAC_CONDENSED>  (394) 
MsO

>  <IUPAC>  (394) 
methanesulfonic acid

>  <TYPE>  (394) 
N-term cap

>  <CLASS>  (394) 
n_cap

>  <ANALOG>  (394) 
X

>  <MOL_WT>  (394) 
96.10699999999999

>  <LOGP>  (394) 
-0.49599999999999983

>  <TPSA>  (394) 
54.370000000000005

>  <POPULARITY>  (394) 
12.9

>  <PROTECTED>  (394) 
FALSE

>  <SMILES>  (394) 
O=S(=O)(C)O

>  <INCHIKEY>  (394) 
AFVFQIVMOAPDHO-UHFFFAOYSA-N

$$$$
NHBn-
     RDKit          2D

  9  9  0  0  0  0  0  0  0  0999 V2000
   -4.0444    0.0606    0.0000 O   0  0  0  0  0  0  0  0  0  0  0  0
   -2.5865    0.4135    0.0000 N   0  0  0  0  0  0  0  0  0  0  0  0
   -1.5520   -0.6727    0.0000 C   0  0  0  0  0  0  0  0  0  0  0  0
   -0.0941   -0.3198    0.0000 C   0  0  0  0  0  0  0  0  0  0  0  0
    0.3293    1.1192    0.0000 C   0  0  0  0  0  0  0  0  0  0  0  0
    1.7872    1.4721    0.0000 C   0  0  0  0  0  0  0  0  0  0  0  0
    2.8217    0.3860    0.0000 C   0  0  0  0  0  0  0  0  0  0  0  0
    2.3984   -1.0531    0.0000 C   0  0  0  0  0  0  0  0  0  0  0  0
    0.9405   -1.4059    0.0000 C   0  0  0  0  0  0  0  0  0  0  0  0
  1  2  1  0
  2  3  1  0
  3  4  1  0
  4  5  2  0
  5  6  1  0
  6  7  2  0
  7  8  1  0
  8  9  2  0
  9  4  1  0
M  END
>  <rName>  (395) 
NHBn-

>  <PQ_SYMBOL>  (395) 
NHBn-

>  <FULL_NAME>  (395) 
N-Terminal 1-phenylmethanamine

>  <IUPAC_CONDENSED>  (395) 
NHBn

>  <IUPAC>  (395) 
N-hydroxy-1-phenylmethanamine

>  <TYPE>  (395) 
N-term cap

>  <CLASS>  (395) 
n_cap

>  <ANALOG>  (395) 
X

>  <MOL_WT>  (395) 
123.15499999999996

>  <LOGP>  (395) 
1.1654000000000002

>  <TPSA>  (395) 
32.26

>  <POPULARITY>  (395) 
14.8

>  <PROTECTED>  (395) 
FALSE

>  <SMILES>  (395) 
ONCc1ccccc1

>  <INCHIKEY>  (395) 
LVCDXCQFSONNDO-UHFFFAOYSA-N

$$$$
OBn-
     RDKit          2D

  9  9  0  0  0  0  0  0  0  0999 V2000
   -2.8217   -0.3860    0.0000 C   0  0  0  0  0  0  0  0  0  0  0  0
   -2.3984    1.0531    0.0000 C   0  0  0  0  0  0  0  0  0  0  0  0
   -0.9405    1.4059    0.0000 C   0  0  0  0  0  0  0  0  0  0  0  0
    0.0941    0.3198    0.0000 C   0  0  0  0  0  0  0  0  0  0  0  0
   -0.3293   -1.1192    0.0000 C   0  0  0  0  0  0  0  0  0  0  0  0
   -1.7872   -1.4721    0.0000 C   0  0  0  0  0  0  0  0  0  0  0  0
    1.5520    0.6727    0.0000 C   0  0  0  0  0  0  0  0  0  0  0  0
    2.5865   -0.4135    0.0000 O   0  0  0  0  0  0  0  0  0  0  0  0
    4.0444   -0.0606    0.0000 O   0  0  0  0  0  0  0  0  0  0  0  0
  1  2  2  0
  2  3  1  0
  3  4  2  0
  4  5  1  0
  5  6  2  0
  4  7  1  0
  7  8  1  0
  8  9  1  0
  6  1  1  0
M  END
>  <rName>  (396) 
OBn-

>  <PQ_SYMBOL>  (396) 
OBn-

>  <FULL_NAME>  (396) 
N-Terminal phenylmethanol

>  <IUPAC_CONDENSED>  (396) 
OBn-

>  <IUPAC>  (396) 
(hydroperoxymethyl)benzene

>  <TYPE>  (396) 
N-term cap

>  <CLASS>  (396) 
n_cap

>  <ANALOG>  (396) 
X

>  <MOL_WT>  (396) 
124.13899999999997

>  <LOGP>  (396) 
1.6762

>  <TPSA>  (396) 
29.46

>  <POPULARITY>  (396) 
14.8

>  <PROTECTED>  (396) 
FALSE

>  <SMILES>  (396) 
c1ccc(cc1)COO

>  <INCHIKEY>  (396) 
YVJRCWCFDJYONJ-UHFFFAOYSA-N

$$$$
OEt
     RDKit          2D

  3  2  0  0  0  0  0  0  0  0999 V2000
   -1.2990   -0.2500    0.0000 C   0  0  0  0  0  0  0  0  0  0  0  0
    0.0000    0.5000    0.0000 C   0  0  0  0  0  0  0  0  0  0  0  0
    1.2990   -0.2500    0.0000 O   0  0  0  0  0  0  0  0  0  0  0  0
  1  2  1  0
  2  3  1  0
M  END
>  <rName>  (397) 
OEt

>  <PQ_SYMBOL>  (397) 
OEt

>  <FULL_NAME>  (397) 
Ethanol

>  <IUPAC_CONDENSED>  (397) 
OEt

>  <IUPAC>  (397) 
ethanol

>  <TYPE>  (397) 
C-term cap

>  <CLASS>  (397) 
c_cap

>  <ANALOG>  (397) 
X

>  <MOL_WT>  (397) 
46.069

>  <LOGP>  (397) 
-0.0014000000000000123

>  <TPSA>  (397) 
20.23

>  <POPULARITY>  (397) 
2

>  <PROTECTED>  (397) 
FALSE

>  <SMILES>  (397) 
CCO

>  <INCHIKEY>  (397) 
LFQSCWFLJHTTHZ-UHFFFAOYSA-N

$$$$
OMe-
     RDKit          2D

  3  2  0  0  0  0  0  0  0  0999 V2000
   -1.2990   -0.2500    0.0000 C   0  0  0  0  0  0  0  0  0  0  0  0
    0.0000    0.5000    0.0000 O   0  0  0  0  0  0  0  0  0  0  0  0
    1.2990   -0.2500    0.0000 O   0  0  0  0  0  0  0  0  0  0  0  0
  1  2  1  0
  2  3  1  0
M  END
>  <rName>  (398) 
OMe-

>  <PQ_SYMBOL>  (398) 
OMe-

>  <FULL_NAME>  (398) 
N-Terminal methanol

>  <IUPAC_CONDENSED>  (398) 
OMe-

>  <IUPAC>  (398) 
hydroperoxymethane

>  <TYPE>  (398) 
N-term cap

>  <CLASS>  (398) 
n_cap

>  <ANALOG>  (398) 
X

>  <MOL_WT>  (398) 
48.041000000000004

>  <LOGP>  (398) 
0.10580000000000006

>  <TPSA>  (398) 
29.46

>  <POPULARITY>  (398) 
2

>  <PROTECTED>  (398) 
FALSE

>  <SMILES>  (398) 
COO

>  <INCHIKEY>  (398) 
MEUKEBNAABNAEX-UHFFFAOYSA-N

$$$$
OtBu
     RDKit          2D

  5  4  0  0  0  0  0  0  0  0999 V2000
   -1.2990   -0.7500    0.0000 C   0  0  0  0  0  0  0  0  0  0  0  0
    0.0000   -0.0000    0.0000 C   0  0  0  0  0  0  0  0  0  0  0  0
    1.2990    0.7500    0.0000 C   0  0  0  0  0  0  0  0  0  0  0  0
    0.7500   -1.2990    0.0000 C   0  0  0  0  0  0  0  0  0  0  0  0
   -0.7500    1.2990    0.0000 O   0  0  0  0  0  0  0  0  0  0  0  0
  1  2  1  0
  2  3  1  0
  2  4  1  0
  2  5  1  0
M  END
>  <rName>  (399) 
OtBu

>  <PQ_SYMBOL>  (399) 
OtBu

>  <FULL_NAME>  (399) 
O-tert-Butyl

>  <IUPAC_CONDENSED>  (399) 
OtBu

>  <IUPAC>  (399) 
2-methylpropan-2-ol

>  <TYPE>  (399) 
C-term cap

>  <CLASS>  (399) 
c_cap

>  <ANALOG>  (399) 
X

>  <MOL_WT>  (399) 
74.12299999999999

>  <LOGP>  (399) 
0.7771999999999999

>  <TPSA>  (399) 
20.23

>  <POPULARITY>  (399) 
15

>  <PROTECTED>  (399) 
FALSE

>  <SMILES>  (399) 
CC(C)(C)O

>  <INCHIKEY>  (399) 
DKGAVHZHDRPRBM-UHFFFAOYSA-N

$$$$
Ph
     RDKit          2D

  6  6  0  0  0  0  0  0  0  0999 V2000
    1.5000    0.0000    0.0000 C   0  0  0  0  0  0  0  0  0  0  0  0
    0.7500   -1.2990    0.0000 C   0  0  0  0  0  0  0  0  0  0  0  0
   -0.7500   -1.2990    0.0000 C   0  0  0  0  0  0  0  0  0  0  0  0
   -1.5000    0.0000    0.0000 C   0  0  0  0  0  0  0  0  0  0  0  0
   -0.7500    1.2990    0.0000 C   0  0  0  0  0  0  0  0  0  0  0  0
    0.7500    1.2990    0.0000 C   0  0  0  0  0  0  0  0  0  0  0  0
  1  2  1  0
  2  3  2  0
  3  4  1  0
  4  5  2  0
  5  6  1  0
  6  1  2  0
M  END
>  <rName>  (400) 
Ph

>  <PQ_SYMBOL>  (400) 
Ph

>  <FULL_NAME>  (400) 
Phenyl

>  <IUPAC_CONDENSED>  (400) 
Ph

>  <IUPAC>  (400) 
benzene

>  <TYPE>  (400) 
C-term cap

>  <CLASS>  (400) 
c_cap

>  <ANALOG>  (400) 
X

>  <MOL_WT>  (400) 
78.11399999999999

>  <LOGP>  (400) 
1.6866

>  <TPSA>  (400) 
0

>  <POPULARITY>  (400) 
15

>  <PROTECTED>  (400) 
FALSE

>  <SMILES>  (400) 
c1ccccc1

>  <INCHIKEY>  (400) 
UHOVQNZJYSORNB-UHFFFAOYSA-N

$$$$
Tos
     RDKit          2D

 11 11  0  0  0  0  0  0  0  0999 V2000
    3.9545    0.0000    0.0000 C   0  0  0  0  0  0  0  0  0  0  0  0
    2.4545   -0.0000    0.0000 C   0  0  0  0  0  0  0  0  0  0  0  0
    1.7045   -1.2990    0.0000 C   0  0  0  0  0  0  0  0  0  0  0  0
    0.2045   -1.2990    0.0000 C   0  0  0  0  0  0  0  0  0  0  0  0
   -0.5455    0.0000    0.0000 C   0  0  0  0  0  0  0  0  0  0  0  0
    0.2045    1.2990    0.0000 C   0  0  0  0  0  0  0  0  0  0  0  0
    1.7045    1.2990    0.0000 C   0  0  0  0  0  0  0  0  0  0  0  0
   -2.0455    0.0000    0.0000 S   0  0  0  0  0  0  0  0  0  0  0  0
   -2.0455    1.5000    0.0000 O   0  0  0  0  0  0  0  0  0  0  0  0
   -2.0455   -1.5000    0.0000 O   0  0  0  0  0  0  0  0  0  0  0  0
   -3.5455   -0.0000    0.0000 O   0  0  0  0  0  0  0  0  0  0  0  0
  1  2  1  0
  2  3  1  0
  3  4  2  0
  4  5  1  0
  5  6  2  0
  6  7  1  0
  5  8  1  0
  8  9  2  0
  8 10  2  0
  8 11  1  0
  7  2  2  0
M  END
>  <rName>  (401) 
Tos

>  <PQ_SYMBOL>  (401) 
Tos

>  <FULL_NAME>  (401) 
Tosyl

>  <IUPAC_CONDENSED>  (401) 
Tos

>  <IUPAC>  (401) 
4-methylbenzene-1-sulfonic acid

>  <TYPE>  (401) 
N-term cap

>  <CLASS>  (401) 
n_cap

>  <ANALOG>  (401) 
X

>  <MOL_WT>  (401) 
172.20499999999998

>  <LOGP>  (401) 
1.24172

>  <TPSA>  (401) 
54.370000000000005

>  <POPULARITY>  (401) 
12

>  <PROTECTED>  (401) 
FALSE

>  <SMILES>  (401) 
Cc1ccc(cc1)S(=O)(=O)O

>  <INCHIKEY>  (401) 
JOXIMZWYDAKGHI-UHFFFAOYSA-N

$$$$
deamino-Phg_4OMe
     RDKit          2D

 12 12  0  0  0  0  0  0  0  0999 V2000
   -4.7162    0.2919    0.0000 C   0  0  0  0  0  0  0  0  0  0  0  0
   -3.6271   -0.7396    0.0000 O   0  0  0  0  0  0  0  0  0  0  0  0
   -2.1893   -0.3121    0.0000 C   0  0  0  0  0  0  0  0  0  0  0  0
   -1.8406    1.1468    0.0000 C   0  0  0  0  0  0  0  0  0  0  0  0
   -0.4028    1.5743    0.0000 C   0  0  0  0  0  0  0  0  0  0  0  0
    0.6863    0.5428    0.0000 C   0  0  0  0  0  0  0  0  0  0  0  0
    0.3376   -0.9161    0.0000 C   0  0  0  0  0  0  0  0  0  0  0  0
   -1.1002   -1.3435    0.0000 C   0  0  0  0  0  0  0  0  0  0  0  0
    2.1241    0.9703    0.0000 C   0  0  0  0  0  0  0  0  0  0  0  0
    3.2132   -0.0611    0.0000 C   0  0  0  0  0  0  0  0  0  0  0  0
    2.8645   -1.5200    0.0000 O   0  0  0  0  0  0  0  0  0  0  0  0
    4.6510    0.3663    0.0000 O   0  0  0  0  0  0  0  0  0  0  0  0
  1  2  1  0
  2  3  1  0
  3  4  1  0
  4  5  2  0
  5  6  1  0
  6  7  2  0
  7  8  1  0
  6  9  1  0
  9 10  1  0
 10 11  2  0
 10 12  1  0
  8  3  2  0
M  END
>  <rName>  (402) 
deamino-Phg_4OMe

>  <PQ_SYMBOL>  (402) 
deamino-Phg_4OMe

>  <FULL_NAME>  (402) 
2-(4-methoxyphenyl)acetic acid

>  <IUPAC_CONDENSED>  (402) 
deamino-Phg(4-OMe)

>  <IUPAC>  (402) 
2-(4-methoxyphenyl)acetic acid

>  <TYPE>  (402) 
N-term cap

>  <CLASS>  (402) 
n_cap

>  <ANALOG>  (402) 
X

>  <MOL_WT>  (402) 
166.176

>  <LOGP>  (402) 
1.3223

>  <TPSA>  (402) 
46.53

>  <POPULARITY>  (402) 
12.2

>  <PROTECTED>  (402) 
FALSE

>  <SMILES>  (402) 
COc1ccc(cc1)CC(=O)O

>  <INCHIKEY>  (402) 
NRPFNQUDKRYCNX-UHFFFAOYSA-N

$$$$
D-Ala-ol
     RDKit          2D

  5  4  0  0  0  0  0  0  0  0999 V2000
   -0.5196    1.5000    0.0000 N   0  0  0  0  0  0  0  0  0  0  0  0
   -0.5196    0.0000    0.0000 C   0  0  0  0  0  0  0  0  0  0  0  0
   -1.8187   -0.7500    0.0000 C   0  0  0  0  0  0  0  0  0  0  0  0
    0.7794   -0.7500    0.0000 C   0  0  0  0  0  0  0  0  0  0  0  0
    2.0785   -0.0000    0.0000 O   0  0  0  0  0  0  0  0  0  0  0  0
  1  2  1  0
  2  3  1  1
  2  4  1  0
  4  5  1  0
M  END
>  <rName>  (403) 
D-Ala-ol

>  <PQ_SYMBOL>  (403) 
D-Ala-ol

>  <FULL_NAME>  (403) 
(2R)-2-aminopropan-1-ol

>  <IUPAC_CONDENSED>  (403) 
D-Ala-ol

>  <IUPAC>  (403) 
(2R)-2-aminopropan-1-ol

>  <TYPE>  (403) 
C-term cap

>  <CLASS>  (403) 
c_cap

>  <ANALOG>  (403) 
X

>  <MOL_WT>  (403) 
75.11099999999999

>  <LOGP>  (403) 
-0.6741000000000001

>  <TPSA>  (403) 
46.25

>  <POPULARITY>  (403) 
15

>  <PROTECTED>  (403) 
FALSE

>  <SMILES>  (403) 
N[C@H](C)CO

>  <INCHIKEY>  (403) 
BKMMTJMQCTUHRP-GSVOUGTGSA-N

$$$$
A
     RDKit          2D

  6  5  0  0  0  0  0  0  0  0999 V2000
    1.5000   -1.2990    0.0000 N   0  0  0  0  0  0  0  0  0  0  0  0
    0.7500    0.0000    0.0000 C   0  0  0  0  0  0  0  0  0  0  0  0
    1.5000    1.2990    0.0000 C   0  0  0  0  0  0  0  0  0  0  0  0
   -0.7500   -0.0000    0.0000 C   0  0  0  0  0  0  0  0  0  0  0  0
   -1.5000    1.2990    0.0000 O   0  0  0  0  0  0  0  0  0  0  0  0
   -1.5000   -1.2990    0.0000 O   0  0  0  0  0  0  0  0  0  0  0  0
  1  2  1  0
  2  3  1  6
  2  4  1  0
  4  5  2  0
  4  6  1  0
M  END
>  <rName>  (404) 
A

>  <PQ_SYMBOL>  (404) 
A

>  <FULL_NAME>  (404) 
L-Alanine

>  <IUPAC_CONDENSED>  (404) 
Ala

>  <IUPAC>  (404) 
(2S)-2-aminopropanoic acid

>  <TYPE>  (404) 
Backbone

>  <CLASS>  (404) 
alpha

>  <ANALOG>  (404) 
Ala

>  <MOL_WT>  (404) 
89.09399999999998

>  <LOGP>  (404) 
-0.5818000000000003

>  <TPSA>  (404) 
63.32000000000001

>  <POPULARITY>  (404) 
98.6

>  <PROTECTED>  (404) 
TRUE

>  <SMILES>  (404) 
N[C@@H](C)C(=O)O

>  <INCHIKEY>  (404) 
QNAYBMKLOCPYGJ-REOHCLBHSA-N

$$$$
C
     RDKit          2D

  7  6  0  0  0  0  0  0  0  0999 V2000
    0.5797   -1.7367    0.0000 N   0  0  0  0  0  0  0  0  0  0  0  0
    0.2514   -0.2730    0.0000 C   0  0  0  0  0  0  0  0  0  0  0  0
    1.3548    0.7431    0.0000 C   0  0  0  0  0  0  0  0  0  0  0  0
    2.7865    0.2956    0.0000 S   0  0  0  0  0  0  0  0  0  0  0  0
   -1.1803    0.1745    0.0000 C   0  0  0  0  0  0  0  0  0  0  0  0
   -1.5086    1.6381    0.0000 O   0  0  0  0  0  0  0  0  0  0  0  0
   -2.2837   -0.8417    0.0000 O   0  0  0  0  0  0  0  0  0  0  0  0
  2  1  1  6
  2  3  1  0
  3  4  1  0
  2  5  1  0
  5  6  2  0
  5  7  1  0
M  END
>  <rName>  (405) 
C

>  <PQ_SYMBOL>  (405) 
C

>  <FULL_NAME>  (405) 
L-Cysteine

>  <IUPAC_CONDENSED>  (405) 
Cys

>  <IUPAC>  (405) 
(2R)-2-amino-3-sulfanylpropanoic acid

>  <TYPE>  (405) 
Backbone

>  <CLASS>  (405) 
alpha

>  <ANALOG>  (405) 
Cys

>  <MOL_WT>  (405) 
121.16099999999997

>  <LOGP>  (405) 
-0.6719000000000002

>  <TPSA>  (405) 
63.32000000000001

>  <POPULARITY>  (405) 
95.6

>  <PROTECTED>  (405) 
TRUE

>  <SMILES>  (405) 
N[C@@H](CS)C(=O)O

>  <INCHIKEY>  (405) 
XUJNEKJLAYXESH-REOHCLBHSA-N

$$$$
D
     RDKit          2D

  9  8  0  0  0  0  0  0  0  0999 V2000
   -0.2826   -1.7410    0.0000 N   0  0  0  0  0  0  0  0  0  0  0  0
   -0.5402   -0.2633    0.0000 C   0  0  0  0  0  0  0  0  0  0  0  0
    0.6108    0.6986    0.0000 C   0  0  0  0  0  0  0  0  0  0  0  0
    2.0193    0.1828    0.0000 C   0  0  0  0  0  0  0  0  0  0  0  0
    2.2769   -1.2950    0.0000 O   0  0  0  0  0  0  0  0  0  0  0  0
    3.1703    1.1447    0.0000 O   0  0  0  0  0  0  0  0  0  0  0  0
   -1.9487    0.2525    0.0000 C   0  0  0  0  0  0  0  0  0  0  0  0
   -2.2062    1.7302    0.0000 O   0  0  0  0  0  0  0  0  0  0  0  0
   -3.0997   -0.7094    0.0000 O   0  0  0  0  0  0  0  0  0  0  0  0
  2  1  1  6
  2  3  1  0
  3  4  1  0
  4  5  2  0
  4  6  1  0
  2  7  1  0
  7  8  2  0
  7  9  1  0
M  END
>  <rName>  (406) 
D

>  <PQ_SYMBOL>  (406) 
D

>  <FULL_NAME>  (406) 
L-Aspartic acid

>  <IUPAC_CONDENSED>  (406) 
Asp

>  <IUPAC>  (406) 
(2S)-2-aminobutanedioic acid

>  <TYPE>  (406) 
Backbone

>  <CLASS>  (406) 
alpha

>  <ANALOG>  (406) 
Asp

>  <MOL_WT>  (406) 
133.10299999999998

>  <LOGP>  (406) 
-1.127

>  <TPSA>  (406) 
100.62000000000002

>  <POPULARITY>  (406) 
94.7

>  <PROTECTED>  (406) 
TRUE

>  <SMILES>  (406) 
N[C@@H](CC(=O)O)C(=O)O

>  <INCHIKEY>  (406) 
CKLJMWTZIZZHCS-REOHCLBHSA-N

$$$$
E
     RDKit          2D

 10  9  0  0  0  0  0  0  0  0999 V2000
    1.2717   -1.9622    0.0000 N   0  0  0  0  0  0  0  0  0  0  0  0
    1.1946   -0.4642    0.0000 C   0  0  0  0  0  0  0  0  0  0  0  0
   -0.1413    0.2180    0.0000 C   0  0  0  0  0  0  0  0  0  0  0  0
   -1.4001   -0.5978    0.0000 C   0  0  0  0  0  0  0  0  0  0  0  0
   -2.7359    0.0845    0.0000 C   0  0  0  0  0  0  0  0  0  0  0  0
   -2.8131    1.5825    0.0000 O   0  0  0  0  0  0  0  0  0  0  0  0
   -3.9947   -0.7313    0.0000 O   0  0  0  0  0  0  0  0  0  0  0  0
    2.4533    0.3516    0.0000 C   0  0  0  0  0  0  0  0  0  0  0  0
    2.3762    1.8496    0.0000 O   0  0  0  0  0  0  0  0  0  0  0  0
    3.7892   -0.3306    0.0000 O   0  0  0  0  0  0  0  0  0  0  0  0
  2  1  1  1
  2  3  1  0
  3  4  1  0
  4  5  1  0
  5  6  2  0
  5  7  1  0
  2  8  1  0
  8  9  2  0
  8 10  1  0
M  END
>  <rName>  (407) 
E

>  <PQ_SYMBOL>  (407) 
E

>  <FULL_NAME>  (407) 
L-Glutamic acid

>  <IUPAC_CONDENSED>  (407) 
Glu

>  <IUPAC>  (407) 
(2S)-2-aminopentanedioic acid

>  <TYPE>  (407) 
Backbone

>  <CLASS>  (407) 
alpha

>  <ANALOG>  (407) 
Glu

>  <MOL_WT>  (407) 
147.13

>  <LOGP>  (407) 
-0.7368999999999997

>  <TPSA>  (407) 
100.62000000000002

>  <POPULARITY>  (407) 
94.8

>  <PROTECTED>  (407) 
TRUE

>  <SMILES>  (407) 
N[C@@H](CCC(=O)O)C(=O)O

>  <INCHIKEY>  (407) 
WHUUTDBJXJRKMK-VKHMYHEASA-N

$$$$
F
     RDKit          2D

 12 12  0  0  0  0  0  0  0  0999 V2000
   -1.2391    1.6805    0.0000 N   0  0  0  0  0  0  0  0  0  0  0  0
   -1.6184    0.2292    0.0000 C   0  0  0  0  0  0  0  0  0  0  0  0
   -0.5513   -0.8249    0.0000 C   0  0  0  0  0  0  0  0  0  0  0  0
    0.8952   -0.4278    0.0000 C   0  0  0  0  0  0  0  0  0  0  0  0
    1.2745    1.0235    0.0000 C   0  0  0  0  0  0  0  0  0  0  0  0
    2.7210    1.4206    0.0000 C   0  0  0  0  0  0  0  0  0  0  0  0
    3.7882    0.3665    0.0000 C   0  0  0  0  0  0  0  0  0  0  0  0
    3.4088   -1.0848    0.0000 C   0  0  0  0  0  0  0  0  0  0  0  0
    1.9624   -1.4819    0.0000 C   0  0  0  0  0  0  0  0  0  0  0  0
   -3.0649   -0.1679    0.0000 C   0  0  0  0  0  0  0  0  0  0  0  0
   -3.4442   -1.6191    0.0000 O   0  0  0  0  0  0  0  0  0  0  0  0
   -4.1321    0.8862    0.0000 O   0  0  0  0  0  0  0  0  0  0  0  0
  2  1  1  1
  2  3  1  0
  3  4  1  0
  4  5  2  0
  5  6  1  0
  6  7  2  0
  7  8  1  0
  8  9  2  0
  2 10  1  0
 10 11  2  0
 10 12  1  0
  9  4  1  0
M  END
>  <rName>  (408) 
F

>  <PQ_SYMBOL>  (408) 
F

>  <FULL_NAME>  (408) 
L-Phenylalanine

>  <IUPAC_CONDENSED>  (408) 
Phe

>  <IUPAC>  (408) 
(2S)-2-amino-3-phenylpropanoic acid

>  <TYPE>  (408) 
Backbone

>  <CLASS>  (408) 
alpha

>  <ANALOG>  (408) 
Phe

>  <MOL_WT>  (408) 
165.19199999999995

>  <LOGP>  (408) 
0.641

>  <TPSA>  (408) 
63.32000000000001

>  <POPULARITY>  (408) 
98.3

>  <PROTECTED>  (408) 
TRUE

>  <SMILES>  (408) 
N[C@@H](Cc1(ccccc1))C(=O)O

>  <INCHIKEY>  (408) 
COLNVLDHVKWLRT-QMMMGPOBSA-N

$$$$
G
     RDKit          2D

  5  4  0  0  0  0  0  0  0  0999 V2000
   -2.0785    0.0000    0.0000 N   0  0  0  0  0  0  0  0  0  0  0  0
   -0.7794   -0.7500    0.0000 C   0  0  0  0  0  0  0  0  0  0  0  0
    0.5196   -0.0000    0.0000 C   0  0  0  0  0  0  0  0  0  0  0  0
    0.5196    1.5000    0.0000 O   0  0  0  0  0  0  0  0  0  0  0  0
    1.8187   -0.7500    0.0000 O   0  0  0  0  0  0  0  0  0  0  0  0
  1  2  1  0
  2  3  1  0
  3  4  2  0
  3  5  1  0
M  END
>  <rName>  (409) 
G

>  <PQ_SYMBOL>  (409) 
G

>  <FULL_NAME>  (409) 
Glycine

>  <IUPAC_CONDENSED>  (409) 
Gly

>  <IUPAC>  (409) 
2-aminoacetic acid

>  <TYPE>  (409) 
Backbone

>  <CLASS>  (409) 
alpha

>  <ANALOG>  (409) 
Gly

>  <MOL_WT>  (409) 
75.067

>  <LOGP>  (409) 
-0.9702999999999999

>  <TPSA>  (409) 
63.32000000000001

>  <POPULARITY>  (409) 
99.8

>  <PROTECTED>  (409) 
TRUE

>  <SMILES>  (409) 
NCC(=O)O

>  <INCHIKEY>  (409) 
DHMQDGOQFOQNFH-UHFFFAOYSA-N

$$$$
H
     RDKit          2D

 11 11  0  0  0  0  0  0  0  0999 V2000
   -0.9461    1.6947    0.0000 N   0  0  0  0  0  0  0  0  0  0  0  0
   -1.3100    0.2395    0.0000 C   0  0  0  0  0  0  0  0  0  0  0  0
   -0.2317   -0.8032    0.0000 C   0  0  0  0  0  0  0  0  0  0  0  0
    1.2105   -0.3908    0.0000 C   0  0  0  0  0  0  0  0  0  0  0  0
    2.3919   -1.3151    0.0000 C   0  0  0  0  0  0  0  0  0  0  0  0
    3.6360   -0.4772    0.0000 N   0  0  0  0  0  0  0  0  0  0  0  0
    3.2236    0.9650    0.0000 C   0  0  0  0  0  0  0  0  0  0  0  0
    1.7245    1.0184    0.0000 N   0  0  0  0  0  0  0  0  0  0  0  0
   -2.7522   -0.1729    0.0000 C   0  0  0  0  0  0  0  0  0  0  0  0
   -3.1161   -1.6281    0.0000 O   0  0  0  0  0  0  0  0  0  0  0  0
   -3.8304    0.8698    0.0000 O   0  0  0  0  0  0  0  0  0  0  0  0
  2  1  1  1
  2  3  1  0
  3  4  1  0
  4  5  2  0
  5  6  1  0
  6  7  2  0
  7  8  1  0
  2  9  1  0
  9 10  2  0
  9 11  1  0
  8  4  1  0
M  END
>  <rName>  (410) 
H

>  <PQ_SYMBOL>  (410) 
H

>  <FULL_NAME>  (410) 
L-Histidine

>  <IUPAC_CONDENSED>  (410) 
His

>  <IUPAC>  (410) 
(2S)-2-amino-3-(1H-imidazol-5-yl)propanoic acid

>  <TYPE>  (410) 
Backbone

>  <CLASS>  (410) 
alpha

>  <ANALOG>  (410) 
His

>  <MOL_WT>  (410) 
155.15699999999998

>  <LOGP>  (410) 
-0.6359000000000001

>  <TPSA>  (410) 
92

>  <POPULARITY>  (410) 
93.4

>  <PROTECTED>  (410) 
TRUE

>  <SMILES>  (410) 
N[C@@H](Cc1(cnc[nH]1))C(=O)O

>  <INCHIKEY>  (410) 
HNDVDQJCIGZPNO-YFKPBYRVSA-N

$$$$
I
     RDKit          2D

  9  8  0  0  0  0  0  0  0  0999 V2000
    0.0000    2.3333    0.0000 N   0  0  0  0  0  0  0  0  0  0  0  0
    0.0000    0.8333    0.0000 C   0  0  0  0  0  0  0  0  0  0  0  0
   -1.2990    0.0833    0.0000 C   0  0  0  0  0  0  0  0  0  0  0  0
   -2.5981    0.8333    0.0000 C   0  0  0  0  0  0  0  0  0  0  0  0
   -1.2990   -1.4167    0.0000 C   0  0  0  0  0  0  0  0  0  0  0  0
   -0.0000   -2.1667    0.0000 C   0  0  0  0  0  0  0  0  0  0  0  0
    1.2990    0.0833    0.0000 C   0  0  0  0  0  0  0  0  0  0  0  0
    1.2990   -1.4167    0.0000 O   0  0  0  0  0  0  0  0  0  0  0  0
    2.5981    0.8333    0.0000 O   0  0  0  0  0  0  0  0  0  0  0  0
  2  1  1  6
  2  3  1  0
  3  4  1  6
  3  5  1  0
  5  6  1  0
  2  7  1  0
  7  8  2  0
  7  9  1  0
M  END
>  <rName>  (411) 
I

>  <PQ_SYMBOL>  (411) 
I

>  <FULL_NAME>  (411) 
L-Isoleucine, (2S,3S)-Isoleucine

>  <IUPAC_CONDENSED>  (411) 
Ile

>  <IUPAC>  (411) 
(2S,3S)-2-amino-3-methylpentanoic acid

>  <TYPE>  (411) 
Backbone

>  <CLASS>  (411) 
alpha

>  <ANALOG>  (411) 
Ile

>  <MOL_WT>  (411) 
131.175

>  <LOGP>  (411) 
0.44439999999999985

>  <TPSA>  (411) 
63.32000000000001

>  <POPULARITY>  (411) 
94.7

>  <PROTECTED>  (411) 
TRUE

>  <SMILES>  (411) 
N[C@@H]([C@@H](C)CC)C(=O)O

>  <INCHIKEY>  (411) 
AGPKZVBTJJNPAG-WHFBIAKZSA-N

$$$$
K
     RDKit          2D

 10  9  0  0  0  0  0  0  0  0999 V2000
   -1.4166    1.8843    0.0000 N   0  0  0  0  0  0  0  0  0  0  0  0
   -1.4265    0.3844    0.0000 C   0  0  0  0  0  0  0  0  0  0  0  0
   -0.1324   -0.3741    0.0000 C   0  0  0  0  0  0  0  0  0  0  0  0
    1.1716    0.3673    0.0000 C   0  0  0  0  0  0  0  0  0  0  0  0
    2.4657   -0.3912    0.0000 C   0  0  0  0  0  0  0  0  0  0  0  0
    3.7696    0.3503    0.0000 C   0  0  0  0  0  0  0  0  0  0  0  0
    5.0637   -0.4082    0.0000 N   0  0  0  0  0  0  0  0  0  0  0  0
   -2.7304   -0.3571    0.0000 C   0  0  0  0  0  0  0  0  0  0  0  0
   -2.7402   -1.8571    0.0000 O   0  0  0  0  0  0  0  0  0  0  0  0
   -4.0245    0.4014    0.0000 O   0  0  0  0  0  0  0  0  0  0  0  0
  2  1  1  1
  2  3  1  0
  3  4  1  0
  4  5  1  0
  5  6  1  0
  6  7  1  0
  2  8  1  0
  8  9  2  0
  8 10  1  0
M  END
>  <rName>  (412) 
K

>  <PQ_SYMBOL>  (412) 
K

>  <FULL_NAME>  (412) 
L-Lysine

>  <IUPAC_CONDENSED>  (412) 
Lys

>  <IUPAC>  (412) 
(2S)-2,6-diaminohexanoic acid

>  <TYPE>  (412) 
Backbone

>  <CLASS>  (412) 
alpha

>  <ANALOG>  (412) 
Lys

>  <MOL_WT>  (412) 
146.19000000000003

>  <LOGP>  (412) 
-0.4727000000000004

>  <TPSA>  (412) 
89.34

>  <POPULARITY>  (412) 
96.9

>  <PROTECTED>  (412) 
TRUE

>  <SMILES>  (412) 
N[C@@H](CCCCN)C(=O)O

>  <INCHIKEY>  (412) 
KDXKERNSBIXSRK-YFKPBYRVSA-N

$$$$
L
     RDKit          2D

  9  8  0  0  0  0  0  0  0  0999 V2000
    0.2826   -1.7410    0.0000 N   0  0  0  0  0  0  0  0  0  0  0  0
    0.5402   -0.2633    0.0000 C   0  0  0  0  0  0  0  0  0  0  0  0
   -0.6108    0.6986    0.0000 C   0  0  0  0  0  0  0  0  0  0  0  0
   -2.0193    0.1828    0.0000 C   0  0  0  0  0  0  0  0  0  0  0  0
   -3.1703    1.1447    0.0000 C   0  0  0  0  0  0  0  0  0  0  0  0
   -2.2769   -1.2950    0.0000 C   0  0  0  0  0  0  0  0  0  0  0  0
    1.9487    0.2525    0.0000 C   0  0  0  0  0  0  0  0  0  0  0  0
    2.2062    1.7302    0.0000 O   0  0  0  0  0  0  0  0  0  0  0  0
    3.0997   -0.7094    0.0000 O   0  0  0  0  0  0  0  0  0  0  0  0
  2  1  1  1
  2  3  1  0
  3  4  1  0
  4  5  1  0
  4  6  1  0
  2  7  1  0
  7  8  2  0
  7  9  1  0
M  END
>  <rName>  (413) 
L

>  <PQ_SYMBOL>  (413) 
L

>  <FULL_NAME>  (413) 
L-Leucine

>  <IUPAC_CONDENSED>  (413) 
Leu

>  <IUPAC>  (413) 
(2S)-2-amino-4-methylpentanoic acid

>  <TYPE>  (413) 
Backbone

>  <CLASS>  (413) 
alpha

>  <ANALOG>  (413) 
Leu

>  <MOL_WT>  (413) 
131.175

>  <LOGP>  (413) 
0.44439999999999985

>  <TPSA>  (413) 
63.32000000000001

>  <POPULARITY>  (413) 
98.5

>  <PROTECTED>  (413) 
TRUE

>  <SMILES>  (413) 
N[C@@H](CC(C)C)C(=O)O

>  <INCHIKEY>  (413) 
ROHFNLRQFUQHCH-YFKPBYRVSA-N

$$$$
M
     RDKit          2D

  9  8  0  0  0  0  0  0  0  0999 V2000
    0.7616   -1.8791    0.0000 N   0  0  0  0  0  0  0  0  0  0  0  0
    0.8459   -0.3815    0.0000 C   0  0  0  0  0  0  0  0  0  0  0  0
   -0.4089    0.4403    0.0000 C   0  0  0  0  0  0  0  0  0  0  0  0
   -1.7480   -0.2354    0.0000 C   0  0  0  0  0  0  0  0  0  0  0  0
   -3.0029    0.5864    0.0000 S   0  0  0  0  0  0  0  0  0  0  0  0
   -4.3420   -0.0894    0.0000 C   0  0  0  0  0  0  0  0  0  0  0  0
    2.1851    0.2943    0.0000 C   0  0  0  0  0  0  0  0  0  0  0  0
    2.2694    1.7919    0.0000 O   0  0  0  0  0  0  0  0  0  0  0  0
    3.4399   -0.5275    0.0000 O   0  0  0  0  0  0  0  0  0  0  0  0
  2  1  1  1
  2  3  1  0
  3  4  1  0
  4  5  1  0
  5  6  1  0
  2  7  1  0
  7  8  2  0
  7  9  1  0
M  END
>  <rName>  (414) 
M

>  <PQ_SYMBOL>  (414) 
M

>  <FULL_NAME>  (414) 
L-Methionine

>  <IUPAC_CONDENSED>  (414) 
Met

>  <IUPAC>  (414) 
(2S)-2-amino-4-(methylsulfanyl)butanoic acid

>  <TYPE>  (414) 
Backbone

>  <CLASS>  (414) 
alpha

>  <ANALOG>  (414) 
Met

>  <MOL_WT>  (414) 
149.215

>  <LOGP>  (414) 
0.1513999999999997

>  <TPSA>  (414) 
63.32000000000001

>  <POPULARITY>  (414) 
92

>  <PROTECTED>  (414) 
TRUE

>  <SMILES>  (414) 
N[C@@H](CCSC)C(=O)O

>  <INCHIKEY>  (414) 
FFEARJCKVFRZRR-BYPYZUCNSA-N

$$$$
N
     RDKit          2D

  9  8  0  0  0  0  0  0  0  0999 V2000
   -0.2826   -1.7410    0.0000 N   0  0  0  0  0  0  0  0  0  0  0  0
   -0.5402   -0.2633    0.0000 C   0  0  0  0  0  0  0  0  0  0  0  0
    0.6108    0.6986    0.0000 C   0  0  0  0  0  0  0  0  0  0  0  0
    2.0193    0.1828    0.0000 C   0  0  0  0  0  0  0  0  0  0  0  0
    2.2769   -1.2950    0.0000 O   0  0  0  0  0  0  0  0  0  0  0  0
    3.1703    1.1447    0.0000 N   0  0  0  0  0  0  0  0  0  0  0  0
   -1.9487    0.2525    0.0000 C   0  0  0  0  0  0  0  0  0  0  0  0
   -2.2062    1.7302    0.0000 O   0  0  0  0  0  0  0  0  0  0  0  0
   -3.0997   -0.7094    0.0000 O   0  0  0  0  0  0  0  0  0  0  0  0
  2  1  1  6
  2  3  1  0
  3  4  1  0
  4  5  2  0
  4  6  1  0
  2  7  1  0
  7  8  2  0
  7  9  1  0
M  END
>  <rName>  (415) 
N

>  <PQ_SYMBOL>  (415) 
N

>  <FULL_NAME>  (415) 
L-Asparagine

>  <IUPAC_CONDENSED>  (415) 
Asn

>  <IUPAC>  (415) 
(2S)-2-amino-3-carbamoylpropanoic acid

>  <TYPE>  (415) 
Backbone

>  <CLASS>  (415) 
alpha

>  <ANALOG>  (415) 
Asn

>  <MOL_WT>  (415) 
132.119

>  <LOGP>  (415) 
-1.7263000000000002

>  <TPSA>  (415) 
106.41000000000001

>  <POPULARITY>  (415) 
94.3

>  <PROTECTED>  (415) 
TRUE

>  <SMILES>  (415) 
N[C@@H](CC(=O)N)C(=O)O

>  <INCHIKEY>  (415) 
DCXYFEDJOCDNAF-REOHCLBHSA-N

$$$$
P
     RDKit          2D

  8  8  0  0  0  0  0  0  0  0999 V2000
   -0.8342   -1.2135    0.0000 N   0  0  0  0  0  0  0  0  0  0  0  0
    0.0475   -0.0000    0.0000 C   0  0  0  0  0  0  0  0  0  0  0  0
   -0.8342    1.2135    0.0000 C   0  0  0  0  0  0  0  0  0  0  0  0
   -2.2608    0.7500    0.0000 C   0  0  0  0  0  0  0  0  0  0  0  0
   -2.2608   -0.7500    0.0000 C   0  0  0  0  0  0  0  0  0  0  0  0
    1.5475    0.0000    0.0000 C   0  0  0  0  0  0  0  0  0  0  0  0
    2.2975    1.2990    0.0000 O   0  0  0  0  0  0  0  0  0  0  0  0
    2.2975   -1.2990    0.0000 O   0  0  0  0  0  0  0  0  0  0  0  0
  1  2  1  0
  2  3  1  0
  3  4  1  0
  4  5  1  0
  2  6  1  1
  6  7  2  0
  6  8  1  0
  5  1  1  0
M  END
>  <rName>  (416) 
P

>  <PQ_SYMBOL>  (416) 
P

>  <FULL_NAME>  (416) 
L-Proline

>  <IUPAC_CONDENSED>  (416) 
Pro

>  <IUPAC>  (416) 
(2S)-pyrrolidine-2-carboxylic acid

>  <TYPE>  (416) 
Backbone

>  <CLASS>  (416) 
alpha

>  <ANALOG>  (416) 
Pro

>  <MOL_WT>  (416) 
115.13199999999999

>  <LOGP>  (416) 
-0.17700000000000032

>  <TPSA>  (416) 
49.33

>  <POPULARITY>  (416) 
98.1

>  <PROTECTED>  (416) 
TRUE

>  <SMILES>  (416) 
N1[C@@H](CCC1)C(=O)O

>  <INCHIKEY>  (416) 
ONIBWKKTOPOVIA-BYPYZUCNSA-N

$$$$
Q
     RDKit          2D

 10  9  0  0  0  0  0  0  0  0999 V2000
    1.2717   -1.9622    0.0000 N   0  0  0  0  0  0  0  0  0  0  0  0
    1.1946   -0.4642    0.0000 C   0  0  0  0  0  0  0  0  0  0  0  0
   -0.1413    0.2180    0.0000 C   0  0  0  0  0  0  0  0  0  0  0  0
   -1.4001   -0.5978    0.0000 C   0  0  0  0  0  0  0  0  0  0  0  0
   -2.7359    0.0845    0.0000 C   0  0  0  0  0  0  0  0  0  0  0  0
   -2.8131    1.5825    0.0000 O   0  0  0  0  0  0  0  0  0  0  0  0
   -3.9947   -0.7313    0.0000 N   0  0  0  0  0  0  0  0  0  0  0  0
    2.4533    0.3516    0.0000 C   0  0  0  0  0  0  0  0  0  0  0  0
    2.3762    1.8496    0.0000 O   0  0  0  0  0  0  0  0  0  0  0  0
    3.7892   -0.3306    0.0000 O   0  0  0  0  0  0  0  0  0  0  0  0
  2  1  1  1
  2  3  1  0
  3  4  1  0
  4  5  1  0
  5  6  2  0
  5  7  1  0
  2  8  1  0
  8  9  2  0
  8 10  1  0
M  END
>  <rName>  (417) 
Q

>  <PQ_SYMBOL>  (417) 
Q

>  <FULL_NAME>  (417) 
L-Glutamine

>  <IUPAC_CONDENSED>  (417) 
Gln

>  <IUPAC>  (417) 
(2S)-2-amino-4-carbamoylbutanoic acid

>  <TYPE>  (417) 
Backbone

>  <CLASS>  (417) 
alpha

>  <ANALOG>  (417) 
Gln

>  <MOL_WT>  (417) 
146.14600000000002

>  <LOGP>  (417) 
-1.336199999999999

>  <TPSA>  (417) 
106.41000000000001

>  <POPULARITY>  (417) 
95.1

>  <PROTECTED>  (417) 
TRUE

>  <SMILES>  (417) 
N[C@@H](CCC(=O)N)C(=O)O

>  <INCHIKEY>  (417) 
ZDXPYRJPNDTMRX-VKHMYHEASA-N

$$$$
R
     RDKit          2D

 12 11  0  0  0  0  0  0  0  0999 V2000
    2.4617   -1.9005    0.0000 N   0  0  0  0  0  0  0  0  0  0  0  0
    2.4001   -0.4018    0.0000 C   0  0  0  0  0  0  0  0  0  0  0  0
    1.0713    0.2943    0.0000 C   0  0  0  0  0  0  0  0  0  0  0  0
   -0.1958   -0.5085    0.0000 C   0  0  0  0  0  0  0  0  0  0  0  0
   -1.5245    0.1875    0.0000 C   0  0  0  0  0  0  0  0  0  0  0  0
   -2.7917   -0.6152    0.0000 N   0  0  0  0  0  0  0  0  0  0  0  0
   -4.1204    0.0808    0.0000 C   0  0  0  0  0  0  0  0  0  0  0  0
   -4.1820    1.5796    0.0000 N   0  0  0  0  0  0  0  0  0  0  0  0
   -5.3876   -0.7219    0.0000 N   0  0  0  0  0  0  0  0  0  0  0  0
    3.6672    0.4010    0.0000 C   0  0  0  0  0  0  0  0  0  0  0  0
    3.6056    1.8997    0.0000 O   0  0  0  0  0  0  0  0  0  0  0  0
    4.9960   -0.2950    0.0000 O   0  0  0  0  0  0  0  0  0  0  0  0
  2  1  1  1
  2  3  1  0
  3  4  1  0
  4  5  1  0
  5  6  1  0
  6  7  1  0
  7  8  2  0
  7  9  1  0
  2 10  1  0
 10 11  2  0
 10 12  1  0
M  END
>  <rName>  (418) 
R

>  <PQ_SYMBOL>  (418) 
R

>  <FULL_NAME>  (418) 
L-Arginine

>  <IUPAC_CONDENSED>  (418) 
Arg

>  <IUPAC>  (418) 
(2S)-2-amino-5-(((amino)(imino)methyl)amino)pentanoic acid

>  <TYPE>  (418) 
Backbone

>  <CLASS>  (418) 
alpha

>  <ANALOG>  (418) 
Arg

>  <MOL_WT>  (418) 
174.204

>  <LOGP>  (418) 
-1.338429999999999

>  <TPSA>  (418) 
125.22000000000001

>  <POPULARITY>  (418) 
96.3

>  <PROTECTED>  (418) 
TRUE

>  <SMILES>  (418) 
N[C@@H](CCCNC(=N)N)C(=O)O

>  <INCHIKEY>  (418) 
ODKSFYDXXFIFQN-BYPYZUCNSA-N

$$$$
S
     RDKit          2D

  7  6  0  0  0  0  0  0  0  0999 V2000
    0.5797   -1.7367    0.0000 N   0  0  0  0  0  0  0  0  0  0  0  0
    0.2514   -0.2730    0.0000 C   0  0  0  0  0  0  0  0  0  0  0  0
    1.3548    0.7431    0.0000 C   0  0  0  0  0  0  0  0  0  0  0  0
    2.7865    0.2956    0.0000 O   0  0  0  0  0  0  0  0  0  0  0  0
   -1.1803    0.1745    0.0000 C   0  0  0  0  0  0  0  0  0  0  0  0
   -1.5086    1.6381    0.0000 O   0  0  0  0  0  0  0  0  0  0  0  0
   -2.2837   -0.8417    0.0000 O   0  0  0  0  0  0  0  0  0  0  0  0
  2  1  1  6
  2  3  1  0
  3  4  1  0
  2  5  1  0
  5  6  2  0
  5  7  1  0
M  END
>  <rName>  (419) 
S

>  <PQ_SYMBOL>  (419) 
S

>  <FULL_NAME>  (419) 
L-Serine

>  <IUPAC_CONDENSED>  (419) 
Ser

>  <IUPAC>  (419) 
(2S)-2-amino-3-hydroxypropanoic acid

>  <TYPE>  (419) 
Backbone

>  <CLASS>  (419) 
alpha

>  <ANALOG>  (419) 
Ser

>  <MOL_WT>  (419) 
105.09299999999999

>  <LOGP>  (419) 
-1.6093999999999997

>  <TPSA>  (419) 
83.55

>  <POPULARITY>  (419) 
96.5

>  <PROTECTED>  (419) 
TRUE

>  <SMILES>  (419) 
N[C@@H](CO)C(=O)O

>  <INCHIKEY>  (419) 
MTCFGRXMJLQNBG-REOHCLBHSA-N

$$$$
T
     RDKit          2D

  8  7  0  0  0  0  0  0  0  0999 V2000
    0.0000   -2.0625    0.0000 N   0  0  0  0  0  0  0  0  0  0  0  0
    0.0000   -0.5625    0.0000 C   0  0  0  0  0  0  0  0  0  0  0  0
   -1.2990    0.1875    0.0000 C   0  0  0  0  0  0  0  0  0  0  0  0
   -1.2990    1.6875    0.0000 O   0  0  0  0  0  0  0  0  0  0  0  0
   -2.5981   -0.5625    0.0000 C   0  0  0  0  0  0  0  0  0  0  0  0
    1.2990    0.1875    0.0000 C   0  0  0  0  0  0  0  0  0  0  0  0
    1.2990    1.6875    0.0000 O   0  0  0  0  0  0  0  0  0  0  0  0
    2.5981   -0.5625    0.0000 O   0  0  0  0  0  0  0  0  0  0  0  0
  2  1  1  1
  2  3  1  0
  3  4  1  0
  3  5  1  1
  2  6  1  0
  6  7  2  0
  6  8  1  0
M  END
>  <rName>  (420) 
T

>  <PQ_SYMBOL>  (420) 
T

>  <FULL_NAME>  (420) 
L-Threonine, (2S,3R)-Threonine

>  <IUPAC_CONDENSED>  (420) 
Thr

>  <IUPAC>  (420) 
(2S,3R)-2-amino-3-hydroxybutanoic acid

>  <TYPE>  (420) 
Backbone

>  <CLASS>  (420) 
alpha

>  <ANALOG>  (420) 
Thr

>  <MOL_WT>  (420) 
119.11999999999999

>  <LOGP>  (420) 
-1.2209

>  <TPSA>  (420) 
83.55

>  <POPULARITY>  (420) 
94

>  <PROTECTED>  (420) 
TRUE

>  <SMILES>  (420) 
N[C@@H]([C@H](O)C)C(=O)O

>  <INCHIKEY>  (420) 
AYFVYJQAPQTCCC-GBXIJSLDSA-N

$$$$
V
     RDKit          2D

  8  7  0  0  0  0  0  0  0  0999 V2000
    0.0000    2.0625    0.0000 N   0  0  0  0  0  0  0  0  0  0  0  0
    0.0000    0.5625    0.0000 C   0  0  0  0  0  0  0  0  0  0  0  0
   -1.2990   -0.1875    0.0000 C   0  0  0  0  0  0  0  0  0  0  0  0
   -2.5981    0.5625    0.0000 C   0  0  0  0  0  0  0  0  0  0  0  0
   -1.2990   -1.6875    0.0000 C   0  0  0  0  0  0  0  0  0  0  0  0
    1.2990   -0.1875    0.0000 C   0  0  0  0  0  0  0  0  0  0  0  0
    1.2990   -1.6875    0.0000 O   0  0  0  0  0  0  0  0  0  0  0  0
    2.5981    0.5625    0.0000 O   0  0  0  0  0  0  0  0  0  0  0  0
  2  1  1  6
  2  3  1  0
  3  4  1  0
  3  5  1  0
  2  6  1  0
  6  7  2  0
  6  8  1  0
M  END
>  <rName>  (421) 
V

>  <PQ_SYMBOL>  (421) 
V

>  <FULL_NAME>  (421) 
L-Valine

>  <IUPAC_CONDENSED>  (421) 
Val

>  <IUPAC>  (421) 
(2S)-2-amino-3-methylbutanoic acid

>  <TYPE>  (421) 
Backbone

>  <CLASS>  (421) 
alpha

>  <ANALOG>  (421) 
Val

>  <MOL_WT>  (421) 
117.14799999999998

>  <LOGP>  (421) 
0.05429999999999996

>  <TPSA>  (421) 
63.32000000000001

>  <POPULARITY>  (421) 
97.7

>  <PROTECTED>  (421) 
TRUE

>  <SMILES>  (421) 
N[C@@H](C(C)C)C(=O)O

>  <INCHIKEY>  (421) 
KZSNJWFQEVHDMF-BYPYZUCNSA-N

$$$$
W
     RDKit          2D

 15 16  0  0  0  0  0  0  0  0999 V2000
   -2.6183   -1.7023    0.0000 N   0  0  0  0  0  0  0  0  0  0  0  0
   -2.5622   -0.2034    0.0000 C   0  0  0  0  0  0  0  0  0  0  0  0
   -1.2360    0.4975    0.0000 C   0  0  0  0  0  0  0  0  0  0  0  0
    0.0341   -0.3006    0.0000 C   0  0  0  0  0  0  0  0  0  0  0  0
    0.1349   -1.7972    0.0000 C   0  0  0  0  0  0  0  0  0  0  0  0
    1.5895   -2.1637    0.0000 N   0  0  0  0  0  0  0  0  0  0  0  0
    2.3875   -0.8937    0.0000 C   0  0  0  0  0  0  0  0  0  0  0  0
    3.8654   -0.6369    0.0000 C   0  0  0  0  0  0  0  0  0  0  0  0
    4.3820    0.7713    0.0000 C   0  0  0  0  0  0  0  0  0  0  0  0
    3.4207    1.9228    0.0000 C   0  0  0  0  0  0  0  0  0  0  0  0
    1.9429    1.6661    0.0000 C   0  0  0  0  0  0  0  0  0  0  0  0
    1.4263    0.2578    0.0000 C   0  0  0  0  0  0  0  0  0  0  0  0
   -3.8322    0.5947    0.0000 C   0  0  0  0  0  0  0  0  0  0  0  0
   -3.7761    2.0937    0.0000 O   0  0  0  0  0  0  0  0  0  0  0  0
   -5.1584   -0.1061    0.0000 O   0  0  0  0  0  0  0  0  0  0  0  0
  2  1  1  6
  2  3  1  0
  3  4  1  0
  4  5  2  0
  5  6  1  0
  6  7  1  0
  7  8  2  0
  8  9  1  0
  9 10  2  0
 10 11  1  0
 11 12  2  0
  2 13  1  0
 13 14  2  0
 13 15  1  0
 12  4  1  0
 12  7  1  0
M  END
>  <rName>  (422) 
W

>  <PQ_SYMBOL>  (422) 
W

>  <FULL_NAME>  (422) 
L-Tryptophan

>  <IUPAC_CONDENSED>  (422) 
Trp

>  <IUPAC>  (422) 
(2S)-2-amino-3-(1H-indol-3-yl)propanoic acid

>  <TYPE>  (422) 
Backbone

>  <CLASS>  (422) 
alpha

>  <ANALOG>  (422) 
Trp

>  <MOL_WT>  (422) 
204.22899999999998

>  <LOGP>  (422) 
1.1223000000000003

>  <TPSA>  (422) 
79.11

>  <POPULARITY>  (422) 
93.1

>  <PROTECTED>  (422) 
TRUE

>  <SMILES>  (422) 
N[C@@H](Cc1(c[nH]c2(ccccc12)))C(=O)O

>  <INCHIKEY>  (422) 
QIVBCDIJIAJPQS-VIFPVBQESA-N

$$$$
Y
     RDKit          2D

 13 13  0  0  0  0  0  0  0  0999 V2000
   -1.5766    1.6851    0.0000 N   0  0  0  0  0  0  0  0  0  0  0  0
   -2.0128    0.2500    0.0000 C   0  0  0  0  0  0  0  0  0  0  0  0
   -0.9880   -0.8454    0.0000 C   0  0  0  0  0  0  0  0  0  0  0  0
    0.4730   -0.5055    0.0000 C   0  0  0  0  0  0  0  0  0  0  0  0
    0.9092    0.9296    0.0000 C   0  0  0  0  0  0  0  0  0  0  0  0
    2.3702    1.2695    0.0000 C   0  0  0  0  0  0  0  0  0  0  0  0
    3.3950    0.1741    0.0000 C   0  0  0  0  0  0  0  0  0  0  0  0
    4.8560    0.5140    0.0000 O   0  0  0  0  0  0  0  0  0  0  0  0
    2.9588   -1.2611    0.0000 C   0  0  0  0  0  0  0  0  0  0  0  0
    1.4978   -1.6009    0.0000 C   0  0  0  0  0  0  0  0  0  0  0  0
   -3.4738   -0.0899    0.0000 C   0  0  0  0  0  0  0  0  0  0  0  0
   -3.9100   -1.5250    0.0000 O   0  0  0  0  0  0  0  0  0  0  0  0
   -4.4986    1.0055    0.0000 O   0  0  0  0  0  0  0  0  0  0  0  0
  2  1  1  1
  2  3  1  0
  3  4  1  0
  4  5  1  0
  5  6  2  0
  6  7  1  0
  7  8  1  0
  7  9  2  0
  9 10  1  0
  2 11  1  0
 11 12  2  0
 11 13  1  0
 10  4  2  0
M  END
>  <rName>  (423) 
Y

>  <PQ_SYMBOL>  (423) 
Y

>  <FULL_NAME>  (423) 
L-Tyrosine

>  <IUPAC_CONDENSED>  (423) 
Tyr

>  <IUPAC>  (423) 
(2S)-2-amino-3-(4-hydroxyphenyl)propanoic acid

>  <TYPE>  (423) 
Backbone

>  <CLASS>  (423) 
alpha

>  <ANALOG>  (423) 
Tyr

>  <MOL_WT>  (423) 
181.19099999999997

>  <LOGP>  (423) 
0.3466

>  <TPSA>  (423) 
83.55

>  <POPULARITY>  (423) 
96.6

>  <PROTECTED>  (423) 
TRUE

>  <SMILES>  (423) 
N[C@@H](Cc1(ccc(O)cc1))C(=O)O

>  <INCHIKEY>  (423) 
OUYCCCASQSFEME-QMMMGPOBSA-N

$$$$
dA
     RDKit          2D

  6  5  0  0  0  0  0  0  0  0999 V2000
    1.5000   -1.2990    0.0000 N   0  0  0  0  0  0  0  0  0  0  0  0
    0.7500    0.0000    0.0000 C   0  0  0  0  0  0  0  0  0  0  0  0
    1.5000    1.2990    0.0000 C   0  0  0  0  0  0  0  0  0  0  0  0
   -0.7500   -0.0000    0.0000 C   0  0  0  0  0  0  0  0  0  0  0  0
   -1.5000    1.2990    0.0000 O   0  0  0  0  0  0  0  0  0  0  0  0
   -1.5000   -1.2990    0.0000 O   0  0  0  0  0  0  0  0  0  0  0  0
  1  2  1  0
  2  3  1  1
  2  4  1  0
  4  5  2  0
  4  6  1  0
M  END
>  <rName>  (424) 
dA

>  <PQ_SYMBOL>  (424) 
dA

>  <FULL_NAME>  (424) 
D-Alanine

>  <IUPAC_CONDENSED>  (424) 
D-Ala

>  <IUPAC>  (424) 
(2R)-2-aminopropanoic acid

>  <TYPE>  (424) 
Backbone

>  <CLASS>  (424) 
alpha

>  <ANALOG>  (424) 
Ala

>  <MOL_WT>  (424) 
89.09399999999998

>  <LOGP>  (424) 
-0.5818000000000003

>  <TPSA>  (424) 
63.32000000000001

>  <POPULARITY>  (424) 
65.4

>  <PROTECTED>  (424) 
TRUE

>  <SMILES>  (424) 
N[C@H](C)C(=O)O

>  <INCHIKEY>  (424) 
QNAYBMKLOCPYGJ-UWTATZPHSA-N

$$$$
dC
     RDKit          2D

  7  6  0  0  0  0  0  0  0  0999 V2000
    0.5797   -1.7367    0.0000 N   0  0  0  0  0  0  0  0  0  0  0  0
    0.2514   -0.2730    0.0000 C   0  0  0  0  0  0  0  0  0  0  0  0
    1.3548    0.7431    0.0000 C   0  0  0  0  0  0  0  0  0  0  0  0
    2.7865    0.2956    0.0000 S   0  0  0  0  0  0  0  0  0  0  0  0
   -1.1803    0.1745    0.0000 C   0  0  0  0  0  0  0  0  0  0  0  0
   -1.5086    1.6381    0.0000 O   0  0  0  0  0  0  0  0  0  0  0  0
   -2.2837   -0.8417    0.0000 O   0  0  0  0  0  0  0  0  0  0  0  0
  2  1  1  1
  2  3  1  0
  3  4  1  0
  2  5  1  0
  5  6  2  0
  5  7  1  0
M  END
>  <rName>  (425) 
dC

>  <PQ_SYMBOL>  (425) 
dC

>  <FULL_NAME>  (425) 
D-Cysteine

>  <IUPAC_CONDENSED>  (425) 
D-Cys

>  <IUPAC>  (425) 
(2S)-2-amino-3-sulfanylpropanoic acid

>  <TYPE>  (425) 
Backbone

>  <CLASS>  (425) 
alpha

>  <ANALOG>  (425) 
Cys

>  <MOL_WT>  (425) 
121.16099999999997

>  <LOGP>  (425) 
-0.6719000000000002

>  <TPSA>  (425) 
63.32000000000001

>  <POPULARITY>  (425) 
56.3

>  <PROTECTED>  (425) 
TRUE

>  <SMILES>  (425) 
N[C@H](CS)C(=O)O

>  <INCHIKEY>  (425) 
XUJNEKJLAYXESH-UWTATZPHSA-N

$$$$
dN
     RDKit          2D

  9  8  0  0  0  0  0  0  0  0999 V2000
   -0.2826   -1.7410    0.0000 N   0  0  0  0  0  0  0  0  0  0  0  0
   -0.5402   -0.2633    0.0000 C   0  0  0  0  0  0  0  0  0  0  0  0
    0.6108    0.6986    0.0000 C   0  0  0  0  0  0  0  0  0  0  0  0
    2.0193    0.1828    0.0000 C   0  0  0  0  0  0  0  0  0  0  0  0
    2.2769   -1.2950    0.0000 O   0  0  0  0  0  0  0  0  0  0  0  0
    3.1703    1.1447    0.0000 N   0  0  0  0  0  0  0  0  0  0  0  0
   -1.9487    0.2525    0.0000 C   0  0  0  0  0  0  0  0  0  0  0  0
   -2.2062    1.7302    0.0000 O   0  0  0  0  0  0  0  0  0  0  0  0
   -3.0997   -0.7094    0.0000 O   0  0  0  0  0  0  0  0  0  0  0  0
  2  1  1  1
  2  3  1  0
  3  4  1  0
  4  5  2  0
  4  6  1  0
  2  7  1  0
  7  8  2  0
  7  9  1  0
M  END
>  <rName>  (426) 
dN

>  <PQ_SYMBOL>  (426) 
dN

>  <FULL_NAME>  (426) 
D-Asparagine

>  <IUPAC_CONDENSED>  (426) 
D-Asn

>  <IUPAC>  (426) 
(2R)-2-amino-3-carbamoylpropanoic acid

>  <TYPE>  (426) 
Backbone

>  <CLASS>  (426) 
alpha

>  <ANALOG>  (426) 
Asn

>  <MOL_WT>  (426) 
132.119

>  <LOGP>  (426) 
-1.7263000000000002

>  <TPSA>  (426) 
106.41000000000001

>  <POPULARITY>  (426) 
48

>  <PROTECTED>  (426) 
TRUE

>  <SMILES>  (426) 
N[C@H](CC(=O)N)C(=O)O

>  <INCHIKEY>  (426) 
DCXYFEDJOCDNAF-UWTATZPHSA-N

$$$$
dE
     RDKit          2D

 10  9  0  0  0  0  0  0  0  0999 V2000
    1.2717   -1.9622    0.0000 N   0  0  0  0  0  0  0  0  0  0  0  0
    1.1946   -0.4642    0.0000 C   0  0  0  0  0  0  0  0  0  0  0  0
   -0.1413    0.2180    0.0000 C   0  0  0  0  0  0  0  0  0  0  0  0
   -1.4001   -0.5978    0.0000 C   0  0  0  0  0  0  0  0  0  0  0  0
   -2.7359    0.0845    0.0000 C   0  0  0  0  0  0  0  0  0  0  0  0
   -2.8131    1.5825    0.0000 O   0  0  0  0  0  0  0  0  0  0  0  0
   -3.9947   -0.7313    0.0000 O   0  0  0  0  0  0  0  0  0  0  0  0
    2.4533    0.3516    0.0000 C   0  0  0  0  0  0  0  0  0  0  0  0
    2.3762    1.8496    0.0000 O   0  0  0  0  0  0  0  0  0  0  0  0
    3.7892   -0.3306    0.0000 O   0  0  0  0  0  0  0  0  0  0  0  0
  2  1  1  6
  2  3  1  0
  3  4  1  0
  4  5  1  0
  5  6  2  0
  5  7  1  0
  2  8  1  0
  8  9  2  0
  8 10  1  0
M  END
>  <rName>  (427) 
dE

>  <PQ_SYMBOL>  (427) 
dE

>  <FULL_NAME>  (427) 
D-Glutamic acid

>  <IUPAC_CONDENSED>  (427) 
D-Glu

>  <IUPAC>  (427) 
(2R)-2-aminopentanedioic acid

>  <TYPE>  (427) 
Backbone

>  <CLASS>  (427) 
alpha

>  <ANALOG>  (427) 
Glu

>  <MOL_WT>  (427) 
147.13

>  <LOGP>  (427) 
-0.7368999999999997

>  <TPSA>  (427) 
100.62000000000002

>  <POPULARITY>  (427) 
53.1

>  <PROTECTED>  (427) 
TRUE

>  <SMILES>  (427) 
N[C@H](CCC(=O)O)C(=O)O

>  <INCHIKEY>  (427) 
WHUUTDBJXJRKMK-GSVOUGTGSA-N

$$$$
dF
     RDKit          2D

 12 12  0  0  0  0  0  0  0  0999 V2000
   -1.2391    1.6805    0.0000 N   0  0  0  0  0  0  0  0  0  0  0  0
   -1.6184    0.2292    0.0000 C   0  0  0  0  0  0  0  0  0  0  0  0
   -0.5513   -0.8249    0.0000 C   0  0  0  0  0  0  0  0  0  0  0  0
    0.8952   -0.4278    0.0000 C   0  0  0  0  0  0  0  0  0  0  0  0
    1.2745    1.0235    0.0000 C   0  0  0  0  0  0  0  0  0  0  0  0
    2.7210    1.4206    0.0000 C   0  0  0  0  0  0  0  0  0  0  0  0
    3.7882    0.3665    0.0000 C   0  0  0  0  0  0  0  0  0  0  0  0
    3.4088   -1.0848    0.0000 C   0  0  0  0  0  0  0  0  0  0  0  0
    1.9624   -1.4819    0.0000 C   0  0  0  0  0  0  0  0  0  0  0  0
   -3.0649   -0.1679    0.0000 C   0  0  0  0  0  0  0  0  0  0  0  0
   -3.4442   -1.6191    0.0000 O   0  0  0  0  0  0  0  0  0  0  0  0
   -4.1321    0.8862    0.0000 O   0  0  0  0  0  0  0  0  0  0  0  0
  2  1  1  6
  2  3  1  0
  3  4  1  0
  4  5  2  0
  5  6  1  0
  6  7  2  0
  7  8  1  0
  8  9  2  0
  2 10  1  0
 10 11  2  0
 10 12  1  0
  9  4  1  0
M  END
>  <rName>  (428) 
dF

>  <PQ_SYMBOL>  (428) 
dF

>  <FULL_NAME>  (428) 
D-Phenylalanine

>  <IUPAC_CONDENSED>  (428) 
D-Phe

>  <IUPAC>  (428) 
(2R)-2-amino-3-phenylpropanoic acid

>  <TYPE>  (428) 
Backbone

>  <CLASS>  (428) 
alpha

>  <ANALOG>  (428) 
Phe

>  <MOL_WT>  (428) 
165.19199999999995

>  <LOGP>  (428) 
0.641

>  <TPSA>  (428) 
63.32000000000001

>  <POPULARITY>  (428) 
60.7

>  <PROTECTED>  (428) 
TRUE

>  <SMILES>  (428) 
N[C@H](Cc1(ccccc1))C(=O)O

>  <INCHIKEY>  (428) 
COLNVLDHVKWLRT-MRVPVSSYSA-N

$$$$
dH
     RDKit          2D

 11 11  0  0  0  0  0  0  0  0999 V2000
   -0.9461    1.6947    0.0000 N   0  0  0  0  0  0  0  0  0  0  0  0
   -1.3100    0.2395    0.0000 C   0  0  0  0  0  0  0  0  0  0  0  0
   -0.2317   -0.8032    0.0000 C   0  0  0  0  0  0  0  0  0  0  0  0
    1.2105   -0.3908    0.0000 C   0  0  0  0  0  0  0  0  0  0  0  0
    2.3919   -1.3151    0.0000 C   0  0  0  0  0  0  0  0  0  0  0  0
    3.6360   -0.4772    0.0000 N   0  0  0  0  0  0  0  0  0  0  0  0
    3.2236    0.9650    0.0000 C   0  0  0  0  0  0  0  0  0  0  0  0
    1.7245    1.0184    0.0000 N   0  0  0  0  0  0  0  0  0  0  0  0
   -2.7522   -0.1729    0.0000 C   0  0  0  0  0  0  0  0  0  0  0  0
   -3.1161   -1.6281    0.0000 O   0  0  0  0  0  0  0  0  0  0  0  0
   -3.8304    0.8698    0.0000 O   0  0  0  0  0  0  0  0  0  0  0  0
  2  1  1  6
  2  3  1  0
  3  4  1  0
  4  5  2  0
  5  6  1  0
  6  7  2  0
  7  8  1  0
  2  9  1  0
  9 10  2  0
  9 11  1  0
  8  4  1  0
M  END
>  <rName>  (429) 
dH

>  <PQ_SYMBOL>  (429) 
dH

>  <FULL_NAME>  (429) 
D-Histidine

>  <IUPAC_CONDENSED>  (429) 
D-His

>  <IUPAC>  (429) 
(2R)-2-amino-3-(1H-imidazol-5-yl)propanoic acid

>  <TYPE>  (429) 
Backbone

>  <CLASS>  (429) 
alpha

>  <ANALOG>  (429) 
His

>  <MOL_WT>  (429) 
155.15699999999998

>  <LOGP>  (429) 
-0.6359000000000001

>  <TPSA>  (429) 
92

>  <POPULARITY>  (429) 
25.9

>  <PROTECTED>  (429) 
TRUE

>  <SMILES>  (429) 
N[C@H](Cc1(cnc[nH]1))C(=O)O

>  <INCHIKEY>  (429) 
HNDVDQJCIGZPNO-RXMQYKEDSA-N

$$$$
D-aIle
     RDKit          2D

  9  8  0  0  0  0  0  0  0  0999 V2000
    0.0000    2.3333    0.0000 N   0  0  0  0  0  0  0  0  0  0  0  0
    0.0000    0.8333    0.0000 C   0  0  0  0  0  0  0  0  0  0  0  0
   -1.2990    0.0833    0.0000 C   0  0  0  0  0  0  0  0  0  0  0  0
   -2.5981    0.8333    0.0000 C   0  0  0  0  0  0  0  0  0  0  0  0
   -1.2990   -1.4167    0.0000 C   0  0  0  0  0  0  0  0  0  0  0  0
   -0.0000   -2.1667    0.0000 C   0  0  0  0  0  0  0  0  0  0  0  0
    1.2990    0.0833    0.0000 C   0  0  0  0  0  0  0  0  0  0  0  0
    1.2990   -1.4167    0.0000 O   0  0  0  0  0  0  0  0  0  0  0  0
    2.5981    0.8333    0.0000 O   0  0  0  0  0  0  0  0  0  0  0  0
  2  1  1  1
  2  3  1  0
  3  4  1  6
  3  5  1  0
  5  6  1  0
  2  7  1  0
  7  8  2  0
  7  9  1  0
M  END
>  <rName>  (430) 
D-aIle

>  <PQ_SYMBOL>  (430) 
D-aIle

>  <FULL_NAME>  (430) 
Allo-D-Isoleucine

>  <IUPAC_CONDENSED>  (430) 
D-aIle

>  <IUPAC>  (430) 
(2R,3S)-2-amino-3-methylpentanoic acid

>  <TYPE>  (430) 
Backbone

>  <CLASS>  (430) 
alpha

>  <ANALOG>  (430) 
Ile

>  <MOL_WT>  (430) 
131.175

>  <LOGP>  (430) 
0.44439999999999985

>  <TPSA>  (430) 
63.32000000000001

>  <POPULARITY>  (430) 
40.5

>  <PROTECTED>  (430) 
TRUE

>  <SMILES>  (430) 
N[C@H]([C@@H](C)CC)C(=O)O

>  <INCHIKEY>  (430) 
AGPKZVBTJJNPAG-CRCLSJGQSA-N

$$$$
dK
     RDKit          2D

 10  9  0  0  0  0  0  0  0  0999 V2000
   -1.4166    1.8843    0.0000 N   0  0  0  0  0  0  0  0  0  0  0  0
   -1.4265    0.3844    0.0000 C   0  0  0  0  0  0  0  0  0  0  0  0
   -0.1324   -0.3741    0.0000 C   0  0  0  0  0  0  0  0  0  0  0  0
    1.1716    0.3673    0.0000 C   0  0  0  0  0  0  0  0  0  0  0  0
    2.4657   -0.3912    0.0000 C   0  0  0  0  0  0  0  0  0  0  0  0
    3.7696    0.3503    0.0000 C   0  0  0  0  0  0  0  0  0  0  0  0
    5.0637   -0.4082    0.0000 N   0  0  0  0  0  0  0  0  0  0  0  0
   -2.7304   -0.3571    0.0000 C   0  0  0  0  0  0  0  0  0  0  0  0
   -2.7402   -1.8571    0.0000 O   0  0  0  0  0  0  0  0  0  0  0  0
   -4.0245    0.4014    0.0000 O   0  0  0  0  0  0  0  0  0  0  0  0
  2  1  1  6
  2  3  1  0
  3  4  1  0
  4  5  1  0
  5  6  1  0
  6  7  1  0
  2  8  1  0
  8  9  2  0
  8 10  1  0
M  END
>  <rName>  (431) 
dK

>  <PQ_SYMBOL>  (431) 
dK

>  <FULL_NAME>  (431) 
D-Lysine

>  <IUPAC_CONDENSED>  (431) 
D-Lys

>  <IUPAC>  (431) 
(2R)-2,6-diaminohexanoic acid

>  <TYPE>  (431) 
Backbone

>  <CLASS>  (431) 
alpha

>  <ANALOG>  (431) 
Lys

>  <MOL_WT>  (431) 
146.19000000000003

>  <LOGP>  (431) 
-0.4727000000000004

>  <TPSA>  (431) 
89.34

>  <POPULARITY>  (431) 
55.6

>  <PROTECTED>  (431) 
TRUE

>  <SMILES>  (431) 
N[C@H](CCCCN)C(=O)O

>  <INCHIKEY>  (431) 
KDXKERNSBIXSRK-RXMQYKEDSA-N

$$$$
dL
     RDKit          2D

  9  8  0  0  0  0  0  0  0  0999 V2000
    0.2826   -1.7410    0.0000 N   0  0  0  0  0  0  0  0  0  0  0  0
    0.5402   -0.2633    0.0000 C   0  0  0  0  0  0  0  0  0  0  0  0
   -0.6108    0.6986    0.0000 C   0  0  0  0  0  0  0  0  0  0  0  0
   -2.0193    0.1828    0.0000 C   0  0  0  0  0  0  0  0  0  0  0  0
   -3.1703    1.1447    0.0000 C   0  0  0  0  0  0  0  0  0  0  0  0
   -2.2769   -1.2950    0.0000 C   0  0  0  0  0  0  0  0  0  0  0  0
    1.9487    0.2525    0.0000 C   0  0  0  0  0  0  0  0  0  0  0  0
    2.2062    1.7302    0.0000 O   0  0  0  0  0  0  0  0  0  0  0  0
    3.0997   -0.7094    0.0000 O   0  0  0  0  0  0  0  0  0  0  0  0
  2  1  1  6
  2  3  1  0
  3  4  1  0
  4  5  1  0
  4  6  1  0
  2  7  1  0
  7  8  2  0
  7  9  1  0
M  END
>  <rName>  (432) 
dL

>  <PQ_SYMBOL>  (432) 
dL

>  <FULL_NAME>  (432) 
D-Leucine

>  <IUPAC_CONDENSED>  (432) 
D-Leu

>  <IUPAC>  (432) 
(2R)-2-amino-4-methylpentanoic acid

>  <TYPE>  (432) 
Backbone

>  <CLASS>  (432) 
alpha

>  <ANALOG>  (432) 
Leu

>  <MOL_WT>  (432) 
131.175

>  <LOGP>  (432) 
0.44439999999999985

>  <TPSA>  (432) 
63.32000000000001

>  <POPULARITY>  (432) 
57.5

>  <PROTECTED>  (432) 
TRUE

>  <SMILES>  (432) 
N[C@H](CC(C)C)C(=O)O

>  <INCHIKEY>  (432) 
ROHFNLRQFUQHCH-RXMQYKEDSA-N

$$$$
dM
     RDKit          2D

  9  8  0  0  0  0  0  0  0  0999 V2000
    0.7616   -1.8791    0.0000 N   0  0  0  0  0  0  0  0  0  0  0  0
    0.8459   -0.3815    0.0000 C   0  0  0  0  0  0  0  0  0  0  0  0
   -0.4089    0.4403    0.0000 C   0  0  0  0  0  0  0  0  0  0  0  0
   -1.7480   -0.2354    0.0000 C   0  0  0  0  0  0  0  0  0  0  0  0
   -3.0029    0.5864    0.0000 S   0  0  0  0  0  0  0  0  0  0  0  0
   -4.3420   -0.0894    0.0000 C   0  0  0  0  0  0  0  0  0  0  0  0
    2.1851    0.2943    0.0000 C   0  0  0  0  0  0  0  0  0  0  0  0
    2.2694    1.7919    0.0000 O   0  0  0  0  0  0  0  0  0  0  0  0
    3.4399   -0.5275    0.0000 O   0  0  0  0  0  0  0  0  0  0  0  0
  2  1  1  6
  2  3  1  0
  3  4  1  0
  4  5  1  0
  5  6  1  0
  2  7  1  0
  7  8  2  0
  7  9  1  0
M  END
>  <rName>  (433) 
dM

>  <PQ_SYMBOL>  (433) 
dM

>  <FULL_NAME>  (433) 
D-Methionine

>  <IUPAC_CONDENSED>  (433) 
D-Met

>  <IUPAC>  (433) 
(2R)-2-amino-4-(methylsulfanyl)butanoic acid

>  <TYPE>  (433) 
Backbone

>  <CLASS>  (433) 
alpha

>  <ANALOG>  (433) 
Met

>  <MOL_WT>  (433) 
149.215

>  <LOGP>  (433) 
0.1513999999999997

>  <TPSA>  (433) 
63.32000000000001

>  <POPULARITY>  (433) 
41.4

>  <PROTECTED>  (433) 
TRUE

>  <SMILES>  (433) 
N[C@H](CCSC)C(=O)O

>  <INCHIKEY>  (433) 
FFEARJCKVFRZRR-SCSAIBSYSA-N

$$$$
dD
     RDKit          2D

  9  8  0  0  0  0  0  0  0  0999 V2000
   -0.2826   -1.7410    0.0000 N   0  0  0  0  0  0  0  0  0  0  0  0
   -0.5402   -0.2633    0.0000 C   0  0  0  0  0  0  0  0  0  0  0  0
    0.6108    0.6986    0.0000 C   0  0  0  0  0  0  0  0  0  0  0  0
    2.0193    0.1828    0.0000 C   0  0  0  0  0  0  0  0  0  0  0  0
    2.2769   -1.2950    0.0000 O   0  0  0  0  0  0  0  0  0  0  0  0
    3.1703    1.1447    0.0000 O   0  0  0  0  0  0  0  0  0  0  0  0
   -1.9487    0.2525    0.0000 C   0  0  0  0  0  0  0  0  0  0  0  0
   -2.2062    1.7302    0.0000 O   0  0  0  0  0  0  0  0  0  0  0  0
   -3.0997   -0.7094    0.0000 O   0  0  0  0  0  0  0  0  0  0  0  0
  2  1  1  1
  2  3  1  0
  3  4  1  0
  4  5  2  0
  4  6  1  0
  2  7  1  0
  7  8  2  0
  7  9  1  0
M  END
>  <rName>  (434) 
dD

>  <PQ_SYMBOL>  (434) 
dD

>  <FULL_NAME>  (434) 
D-Aspartic acid

>  <IUPAC_CONDENSED>  (434) 
D-Asp

>  <IUPAC>  (434) 
(2R)-2-aminobutanedioic acid

>  <TYPE>  (434) 
Backbone

>  <CLASS>  (434) 
alpha

>  <ANALOG>  (434) 
Asp

>  <MOL_WT>  (434) 
133.10299999999998

>  <LOGP>  (434) 
-1.127

>  <TPSA>  (434) 
100.62000000000002

>  <POPULARITY>  (434) 
50.6

>  <PROTECTED>  (434) 
TRUE

>  <SMILES>  (434) 
N[C@H](CC(=O)O)C(=O)O

>  <INCHIKEY>  (434) 
CKLJMWTZIZZHCS-UWTATZPHSA-N

$$$$
dP
     RDKit          2D

  8  8  0  0  0  0  0  0  0  0999 V2000
   -0.8342   -1.2135    0.0000 N   0  0  0  0  0  0  0  0  0  0  0  0
    0.0475   -0.0000    0.0000 C   0  0  0  0  0  0  0  0  0  0  0  0
   -0.8342    1.2135    0.0000 C   0  0  0  0  0  0  0  0  0  0  0  0
   -2.2608    0.7500    0.0000 C   0  0  0  0  0  0  0  0  0  0  0  0
   -2.2608   -0.7500    0.0000 C   0  0  0  0  0  0  0  0  0  0  0  0
    1.5475    0.0000    0.0000 C   0  0  0  0  0  0  0  0  0  0  0  0
    2.2975    1.2990    0.0000 O   0  0  0  0  0  0  0  0  0  0  0  0
    2.2975   -1.2990    0.0000 O   0  0  0  0  0  0  0  0  0  0  0  0
  1  2  1  0
  2  3  1  0
  3  4  1  0
  4  5  1  0
  2  6  1  6
  6  7  2  0
  6  8  1  0
  5  1  1  0
M  END
>  <rName>  (435) 
dP

>  <PQ_SYMBOL>  (435) 
dP

>  <FULL_NAME>  (435) 
D-Proline

>  <IUPAC_CONDENSED>  (435) 
D-Pro

>  <IUPAC>  (435) 
(2R)-pyrrolidine-2-carboxylic acid

>  <TYPE>  (435) 
Backbone

>  <CLASS>  (435) 
alpha

>  <ANALOG>  (435) 
Pro

>  <MOL_WT>  (435) 
115.13199999999999

>  <LOGP>  (435) 
-0.17700000000000032

>  <TPSA>  (435) 
49.33

>  <POPULARITY>  (435) 
59.7

>  <PROTECTED>  (435) 
TRUE

>  <SMILES>  (435) 
N1[C@H](CCC1)C(=O)O

>  <INCHIKEY>  (435) 
ONIBWKKTOPOVIA-SCSAIBSYSA-N

$$$$
dQ
     RDKit          2D

 10  9  0  0  0  0  0  0  0  0999 V2000
    1.2717   -1.9622    0.0000 N   0  0  0  0  0  0  0  0  0  0  0  0
    1.1946   -0.4642    0.0000 C   0  0  0  0  0  0  0  0  0  0  0  0
   -0.1413    0.2180    0.0000 C   0  0  0  0  0  0  0  0  0  0  0  0
   -1.4001   -0.5978    0.0000 C   0  0  0  0  0  0  0  0  0  0  0  0
   -2.7359    0.0845    0.0000 C   0  0  0  0  0  0  0  0  0  0  0  0
   -2.8131    1.5825    0.0000 O   0  0  0  0  0  0  0  0  0  0  0  0
   -3.9947   -0.7313    0.0000 N   0  0  0  0  0  0  0  0  0  0  0  0
    2.4533    0.3516    0.0000 C   0  0  0  0  0  0  0  0  0  0  0  0
    2.3762    1.8496    0.0000 O   0  0  0  0  0  0  0  0  0  0  0  0
    3.7892   -0.3306    0.0000 O   0  0  0  0  0  0  0  0  0  0  0  0
  2  1  1  6
  2  3  1  0
  3  4  1  0
  4  5  1  0
  5  6  2  0
  5  7  1  0
  2  8  1  0
  8  9  2  0
  8 10  1  0
M  END
>  <rName>  (436) 
dQ

>  <PQ_SYMBOL>  (436) 
dQ

>  <FULL_NAME>  (436) 
D-Glutamine

>  <IUPAC_CONDENSED>  (436) 
D-Gln

>  <IUPAC>  (436) 
(2R)-2-amino-4-carbamoylbutanoic acid

>  <TYPE>  (436) 
Backbone

>  <CLASS>  (436) 
alpha

>  <ANALOG>  (436) 
Gln

>  <MOL_WT>  (436) 
146.14600000000002

>  <LOGP>  (436) 
-1.336199999999999

>  <TPSA>  (436) 
106.41000000000001

>  <POPULARITY>  (436) 
52.1

>  <PROTECTED>  (436) 
TRUE

>  <SMILES>  (436) 
N[C@H](CCC(=O)N)C(=O)O

>  <INCHIKEY>  (436) 
ZDXPYRJPNDTMRX-GSVOUGTGSA-N

$$$$
dR
     RDKit          2D

 12 11  0  0  0  0  0  0  0  0999 V2000
    2.4617   -1.9005    0.0000 N   0  0  0  0  0  0  0  0  0  0  0  0
    2.4001   -0.4018    0.0000 C   0  0  0  0  0  0  0  0  0  0  0  0
    1.0713    0.2943    0.0000 C   0  0  0  0  0  0  0  0  0  0  0  0
   -0.1958   -0.5085    0.0000 C   0  0  0  0  0  0  0  0  0  0  0  0
   -1.5245    0.1875    0.0000 C   0  0  0  0  0  0  0  0  0  0  0  0
   -2.7917   -0.6152    0.0000 N   0  0  0  0  0  0  0  0  0  0  0  0
   -4.1204    0.0808    0.0000 C   0  0  0  0  0  0  0  0  0  0  0  0
   -4.1820    1.5796    0.0000 N   0  0  0  0  0  0  0  0  0  0  0  0
   -5.3876   -0.7219    0.0000 N   0  0  0  0  0  0  0  0  0  0  0  0
    3.6672    0.4010    0.0000 C   0  0  0  0  0  0  0  0  0  0  0  0
    3.6056    1.8997    0.0000 O   0  0  0  0  0  0  0  0  0  0  0  0
    4.9960   -0.2950    0.0000 O   0  0  0  0  0  0  0  0  0  0  0  0
  2  1  1  6
  2  3  1  0
  3  4  1  0
  4  5  1  0
  5  6  1  0
  6  7  1  0
  7  8  2  0
  7  9  1  0
  2 10  1  0
 10 11  2  0
 10 12  1  0
M  END
>  <rName>  (437) 
dR

>  <PQ_SYMBOL>  (437) 
dR

>  <FULL_NAME>  (437) 
D-Arginine

>  <IUPAC_CONDENSED>  (437) 
D-Arg

>  <IUPAC>  (437) 
(2R)-2-amino-5-(((amino)(imino)methyl)amino)pentanoic acid

>  <TYPE>  (437) 
Backbone

>  <CLASS>  (437) 
alpha

>  <ANALOG>  (437) 
Arg

>  <MOL_WT>  (437) 
174.204

>  <LOGP>  (437) 
-1.338429999999999

>  <TPSA>  (437) 
125.22000000000001

>  <POPULARITY>  (437) 
31.9

>  <PROTECTED>  (437) 
TRUE

>  <SMILES>  (437) 
N[C@H](CCCNC(=N)N)C(=O)O

>  <INCHIKEY>  (437) 
ODKSFYDXXFIFQN-SCSAIBSYSA-N

$$$$
dS
     RDKit          2D

  7  6  0  0  0  0  0  0  0  0999 V2000
    0.5797   -1.7367    0.0000 N   0  0  0  0  0  0  0  0  0  0  0  0
    0.2514   -0.2730    0.0000 C   0  0  0  0  0  0  0  0  0  0  0  0
    1.3548    0.7431    0.0000 C   0  0  0  0  0  0  0  0  0  0  0  0
    2.7865    0.2956    0.0000 O   0  0  0  0  0  0  0  0  0  0  0  0
   -1.1803    0.1745    0.0000 C   0  0  0  0  0  0  0  0  0  0  0  0
   -1.5086    1.6381    0.0000 O   0  0  0  0  0  0  0  0  0  0  0  0
   -2.2837   -0.8417    0.0000 O   0  0  0  0  0  0  0  0  0  0  0  0
  2  1  1  1
  2  3  1  0
  3  4  1  0
  2  5  1  0
  5  6  2  0
  5  7  1  0
M  END
>  <rName>  (438) 
dS

>  <PQ_SYMBOL>  (438) 
dS

>  <FULL_NAME>  (438) 
D-Serine

>  <IUPAC_CONDENSED>  (438) 
D-Ser

>  <IUPAC>  (438) 
(2R)-2-amino-3-hydroxypropanoic acid

>  <TYPE>  (438) 
Backbone

>  <CLASS>  (438) 
alpha

>  <ANALOG>  (438) 
Ser

>  <MOL_WT>  (438) 
105.09299999999999

>  <LOGP>  (438) 
-1.6093999999999997

>  <TPSA>  (438) 
83.55

>  <POPULARITY>  (438) 
53.5

>  <PROTECTED>  (438) 
TRUE

>  <SMILES>  (438) 
N[C@H](CO)C(=O)O

>  <INCHIKEY>  (438) 
MTCFGRXMJLQNBG-UWTATZPHSA-N

$$$$
dT
     RDKit          2D

  8  7  0  0  0  0  0  0  0  0999 V2000
    0.0000   -2.0625    0.0000 N   0  0  0  0  0  0  0  0  0  0  0  0
    0.0000   -0.5625    0.0000 C   0  0  0  0  0  0  0  0  0  0  0  0
   -1.2990    0.1875    0.0000 C   0  0  0  0  0  0  0  0  0  0  0  0
   -1.2990    1.6875    0.0000 O   0  0  0  0  0  0  0  0  0  0  0  0
   -2.5981   -0.5625    0.0000 C   0  0  0  0  0  0  0  0  0  0  0  0
    1.2990    0.1875    0.0000 C   0  0  0  0  0  0  0  0  0  0  0  0
    1.2990    1.6875    0.0000 O   0  0  0  0  0  0  0  0  0  0  0  0
    2.5981   -0.5625    0.0000 O   0  0  0  0  0  0  0  0  0  0  0  0
  2  1  1  6
  2  3  1  0
  3  4  1  0
  3  5  1  6
  2  6  1  0
  6  7  2  0
  6  8  1  0
M  END
>  <rName>  (439) 
dT

>  <PQ_SYMBOL>  (439) 
dT

>  <FULL_NAME>  (439) 
D-Threonine, (2R,3S)-Threonine

>  <IUPAC_CONDENSED>  (439) 
D-Thr

>  <IUPAC>  (439) 
(2R,3S)-2-amino-3-hydroxybutanoic acid

>  <TYPE>  (439) 
Backbone

>  <CLASS>  (439) 
alpha

>  <ANALOG>  (439) 
Thr

>  <MOL_WT>  (439) 
119.11999999999999

>  <LOGP>  (439) 
-1.2209

>  <TPSA>  (439) 
83.55

>  <POPULARITY>  (439) 
47

>  <PROTECTED>  (439) 
TRUE

>  <SMILES>  (439) 
N[C@H]([C@@H](O)C)C(=O)O

>  <INCHIKEY>  (439) 
AYFVYJQAPQTCCC-STHAYSLISA-N

$$$$
dV
     RDKit          2D

  8  7  0  0  0  0  0  0  0  0999 V2000
    0.0000    2.0625    0.0000 N   0  0  0  0  0  0  0  0  0  0  0  0
    0.0000    0.5625    0.0000 C   0  0  0  0  0  0  0  0  0  0  0  0
   -1.2990   -0.1875    0.0000 C   0  0  0  0  0  0  0  0  0  0  0  0
   -2.5981    0.5625    0.0000 C   0  0  0  0  0  0  0  0  0  0  0  0
   -1.2990   -1.6875    0.0000 C   0  0  0  0  0  0  0  0  0  0  0  0
    1.2990   -0.1875    0.0000 C   0  0  0  0  0  0  0  0  0  0  0  0
    1.2990   -1.6875    0.0000 O   0  0  0  0  0  0  0  0  0  0  0  0
    2.5981    0.5625    0.0000 O   0  0  0  0  0  0  0  0  0  0  0  0
  2  1  1  1
  2  3  1  0
  3  4  1  0
  3  5  1  0
  2  6  1  0
  6  7  2  0
  6  8  1  0
M  END
>  <rName>  (440) 
dV

>  <PQ_SYMBOL>  (440) 
dV

>  <FULL_NAME>  (440) 
D-Valine

>  <IUPAC_CONDENSED>  (440) 
D-Val

>  <IUPAC>  (440) 
(2R)-2-amino-3-methylbutanoic acid

>  <TYPE>  (440) 
Backbone

>  <CLASS>  (440) 
alpha

>  <ANALOG>  (440) 
Val

>  <MOL_WT>  (440) 
117.14799999999998

>  <LOGP>  (440) 
0.05429999999999996

>  <TPSA>  (440) 
63.32000000000001

>  <POPULARITY>  (440) 
56.3

>  <PROTECTED>  (440) 
TRUE

>  <SMILES>  (440) 
N[C@H](C(C)C)C(=O)O

>  <INCHIKEY>  (440) 
KZSNJWFQEVHDMF-SCSAIBSYSA-N

$$$$
dW
     RDKit          2D

 15 16  0  0  0  0  0  0  0  0999 V2000
   -2.6183   -1.7023    0.0000 N   0  0  0  0  0  0  0  0  0  0  0  0
   -2.5622   -0.2034    0.0000 C   0  0  0  0  0  0  0  0  0  0  0  0
   -1.2360    0.4975    0.0000 C   0  0  0  0  0  0  0  0  0  0  0  0
    0.0341   -0.3006    0.0000 C   0  0  0  0  0  0  0  0  0  0  0  0
    0.1349   -1.7972    0.0000 C   0  0  0  0  0  0  0  0  0  0  0  0
    1.5895   -2.1637    0.0000 N   0  0  0  0  0  0  0  0  0  0  0  0
    2.3875   -0.8937    0.0000 C   0  0  0  0  0  0  0  0  0  0  0  0
    3.8654   -0.6369    0.0000 C   0  0  0  0  0  0  0  0  0  0  0  0
    4.3820    0.7713    0.0000 C   0  0  0  0  0  0  0  0  0  0  0  0
    3.4207    1.9228    0.0000 C   0  0  0  0  0  0  0  0  0  0  0  0
    1.9429    1.6661    0.0000 C   0  0  0  0  0  0  0  0  0  0  0  0
    1.4263    0.2578    0.0000 C   0  0  0  0  0  0  0  0  0  0  0  0
   -3.8322    0.5947    0.0000 C   0  0  0  0  0  0  0  0  0  0  0  0
   -3.7761    2.0937    0.0000 O   0  0  0  0  0  0  0  0  0  0  0  0
   -5.1584   -0.1061    0.0000 O   0  0  0  0  0  0  0  0  0  0  0  0
  2  1  1  1
  2  3  1  0
  3  4  1  0
  4  5  2  0
  5  6  1  0
  6  7  1  0
  7  8  2  0
  8  9  1  0
  9 10  2  0
 10 11  1  0
 11 12  2  0
  2 13  1  0
 13 14  2  0
 13 15  1  0
 12  4  1  0
 12  7  1  0
M  END
>  <rName>  (441) 
dW

>  <PQ_SYMBOL>  (441) 
dW

>  <FULL_NAME>  (441) 
D-Tryptophan

>  <IUPAC_CONDENSED>  (441) 
D-Trp

>  <IUPAC>  (441) 
(2R)-2-amino-3-(1H-indol-3-yl)propanoic acid

>  <TYPE>  (441) 
Backbone

>  <CLASS>  (441) 
alpha

>  <ANALOG>  (441) 
Trp

>  <MOL_WT>  (441) 
204.22899999999998

>  <LOGP>  (441) 
1.1223000000000003

>  <TPSA>  (441) 
79.11

>  <POPULARITY>  (441) 
55.7

>  <PROTECTED>  (441) 
TRUE

>  <SMILES>  (441) 
N[C@H](Cc1(c[nH]c2(ccccc12)))C(=O)O

>  <INCHIKEY>  (441) 
QIVBCDIJIAJPQS-SECBINFHSA-N

$$$$
dY
     RDKit          2D

 13 13  0  0  0  0  0  0  0  0999 V2000
   -1.5766    1.6851    0.0000 N   0  0  0  0  0  0  0  0  0  0  0  0
   -2.0128    0.2500    0.0000 C   0  0  0  0  0  0  0  0  0  0  0  0
   -0.9880   -0.8454    0.0000 C   0  0  0  0  0  0  0  0  0  0  0  0
    0.4730   -0.5055    0.0000 C   0  0  0  0  0  0  0  0  0  0  0  0
    0.9092    0.9296    0.0000 C   0  0  0  0  0  0  0  0  0  0  0  0
    2.3702    1.2695    0.0000 C   0  0  0  0  0  0  0  0  0  0  0  0
    3.3950    0.1741    0.0000 C   0  0  0  0  0  0  0  0  0  0  0  0
    4.8560    0.5140    0.0000 O   0  0  0  0  0  0  0  0  0  0  0  0
    2.9588   -1.2611    0.0000 C   0  0  0  0  0  0  0  0  0  0  0  0
    1.4978   -1.6009    0.0000 C   0  0  0  0  0  0  0  0  0  0  0  0
   -3.4738   -0.0899    0.0000 C   0  0  0  0  0  0  0  0  0  0  0  0
   -3.9100   -1.5250    0.0000 O   0  0  0  0  0  0  0  0  0  0  0  0
   -4.4986    1.0055    0.0000 O   0  0  0  0  0  0  0  0  0  0  0  0
  2  1  1  6
  2  3  1  0
  3  4  1  0
  4  5  1  0
  5  6  2  0
  6  7  1  0
  7  8  1  0
  7  9  2  0
  9 10  1  0
  2 11  1  0
 11 12  2  0
 11 13  1  0
 10  4  2  0
M  END
>  <rName>  (442) 
dY

>  <PQ_SYMBOL>  (442) 
dY

>  <FULL_NAME>  (442) 
D-Tyrosine

>  <IUPAC_CONDENSED>  (442) 
D-Tyr

>  <IUPAC>  (442) 
(2R)-2-amino-3-(4-hydroxyphenyl)propanoic acid

>  <TYPE>  (442) 
Backbone

>  <CLASS>  (442) 
alpha

>  <ANALOG>  (442) 
Tyr

>  <MOL_WT>  (442) 
181.19099999999997

>  <LOGP>  (442) 
0.3466

>  <TPSA>  (442) 
83.55

>  <POPULARITY>  (442) 
53

>  <PROTECTED>  (442) 
TRUE

>  <SMILES>  (442) 
N[C@H](Cc1(ccc(O)cc1))C(=O)O

>  <INCHIKEY>  (442) 
OUYCCCASQSFEME-MRVPVSSYSA-N

$$$$
bAla_3REtO2H
     RDKit          2D

 10  9  0  0  0  0  0  0  0  0999 V2000
   -0.0000    1.3500    0.0000 N   0  0  0  0  0  0  0  0  0  0  0  0
   -0.0000   -0.1500    0.0000 C   0  0  0  0  0  0  0  0  0  0  0  0
   -1.2990   -0.9000    0.0000 C   0  0  0  0  0  0  0  0  0  0  0  0
   -2.5981   -0.1500    0.0000 C   0  0  0  0  0  0  0  0  0  0  0  0
   -2.5981    1.3500    0.0000 O   0  0  0  0  0  0  0  0  0  0  0  0
   -3.8971   -0.9000    0.0000 O   0  0  0  0  0  0  0  0  0  0  0  0
    1.2990   -0.9000    0.0000 C   0  0  0  0  0  0  0  0  0  0  0  0
    2.5981   -0.1500    0.0000 C   0  0  0  0  0  0  0  0  0  0  0  0
    2.5981    1.3500    0.0000 O   0  0  0  0  0  0  0  0  0  0  0  0
    3.8971   -0.9000    0.0000 O   0  0  0  0  0  0  0  0  0  0  0  0
  1  2  1  0
  2  3  1  0
  3  4  1  0
  4  5  2  0
  4  6  1  0
  2  7  1  0
  7  8  1  0
  8  9  2  0
  8 10  1  0
M  END
>  <rName>  (443) 
bAla_3REtO2H

>  <PQ_SYMBOL>  (443) 
bAla_3REtO2H

>  <FULL_NAME>  (443) 
L-beta-Glutamic acid

>  <IUPAC_CONDENSED>  (443) 
bAla(3R-EtO2H)

>  <IUPAC>  (443) 
3-aminopentanedioic acid

>  <TYPE>  (443) 
Backbone

>  <CLASS>  (443) 
beta

>  <ANALOG>  (443) 
Asp

>  <MOL_WT>  (443) 
147.13

>  <LOGP>  (443) 
-0.7369000000000001

>  <TPSA>  (443) 
100.62000000000002

>  <POPULARITY>  (443) 
23.8

>  <PROTECTED>  (443) 
TRUE

>  <SMILES>  (443) 
NC(CC(=O)O)CC(=O)O

>  <INCHIKEY>  (443) 
BBJIPMIXTXKYLZ-UHFFFAOYSA-N

$$$$
bAla_3SEtO2H
     RDKit          2D

 10  9  0  0  0  0  0  0  0  0999 V2000
   -0.0000    1.3500    0.0000 N   0  0  0  0  0  0  0  0  0  0  0  0
   -0.0000   -0.1500    0.0000 C   0  0  0  0  0  0  0  0  0  0  0  0
   -1.2990   -0.9000    0.0000 C   0  0  0  0  0  0  0  0  0  0  0  0
   -2.5981   -0.1500    0.0000 C   0  0  0  0  0  0  0  0  0  0  0  0
   -2.5981    1.3500    0.0000 O   0  0  0  0  0  0  0  0  0  0  0  0
   -3.8971   -0.9000    0.0000 O   0  0  0  0  0  0  0  0  0  0  0  0
    1.2990   -0.9000    0.0000 C   0  0  0  0  0  0  0  0  0  0  0  0
    2.5981   -0.1500    0.0000 C   0  0  0  0  0  0  0  0  0  0  0  0
    2.5981    1.3500    0.0000 O   0  0  0  0  0  0  0  0  0  0  0  0
    3.8971   -0.9000    0.0000 O   0  0  0  0  0  0  0  0  0  0  0  0
  1  2  1  0
  2  3  1  0
  3  4  1  0
  4  5  2  0
  4  6  1  0
  2  7  1  0
  7  8  1  0
  8  9  2  0
  8 10  1  0
M  END
>  <rName>  (444) 
bAla_3SEtO2H

>  <PQ_SYMBOL>  (444) 
bAla_3SEtO2H

>  <FULL_NAME>  (444) 
D-beta-Glutamic acid

>  <IUPAC_CONDENSED>  (444) 
bAla(3S-EtO2H)

>  <IUPAC>  (444) 
3-aminopentanedioic acid

>  <TYPE>  (444) 
Backbone

>  <CLASS>  (444) 
beta

>  <ANALOG>  (444) 
Asp

>  <MOL_WT>  (444) 
147.13

>  <LOGP>  (444) 
-0.7369000000000001

>  <TPSA>  (444) 
100.62000000000002

>  <POPULARITY>  (444) 
7.4

>  <PROTECTED>  (444) 
TRUE

>  <SMILES>  (444) 
NC(CC(=O)O)CC(=O)O

>  <INCHIKEY>  (444) 
BBJIPMIXTXKYLZ-UHFFFAOYSA-N

$$$$
Tyr_SO3H
     RDKit          2D

 17 17  0  0  0  0  0  0  0  0999 V2000
   -3.1457    1.6694    0.0000 N   0  0  0  0  0  0  0  0  0  0  0  0
   -3.4800    0.2071    0.0000 C   0  0  0  0  0  0  0  0  0  0  0  0
   -2.3807   -0.8135    0.0000 C   0  0  0  0  0  0  0  0  0  0  0  0
   -0.9472   -0.3718    0.0000 C   0  0  0  0  0  0  0  0  0  0  0  0
   -0.6130    1.0905    0.0000 C   0  0  0  0  0  0  0  0  0  0  0  0
    0.8205    1.5322    0.0000 C   0  0  0  0  0  0  0  0  0  0  0  0
    1.9198    0.5116    0.0000 C   0  0  0  0  0  0  0  0  0  0  0  0
    3.3533    0.9532    0.0000 O   0  0  0  0  0  0  0  0  0  0  0  0
    4.4525   -0.0674    0.0000 S   0  0  0  0  0  0  0  0  0  0  0  0
    3.4319   -1.1666    0.0000 O   0  0  0  0  0  0  0  0  0  0  0  0
    5.4731    1.0319    0.0000 O   0  0  0  0  0  0  0  0  0  0  0  0
    5.5518   -1.0880    0.0000 O   0  0  0  0  0  0  0  0  0  0  0  0
    1.5855   -0.9507    0.0000 C   0  0  0  0  0  0  0  0  0  0  0  0
    0.1520   -1.3924    0.0000 C   0  0  0  0  0  0  0  0  0  0  0  0
   -4.9135   -0.2346    0.0000 C   0  0  0  0  0  0  0  0  0  0  0  0
   -5.2477   -1.6969    0.0000 O   0  0  0  0  0  0  0  0  0  0  0  0
   -6.0127    0.7860    0.0000 O   0  0  0  0  0  0  0  0  0  0  0  0
  2  1  1  1
  2  3  1  0
  3  4  1  0
  4  5  1  0
  5  6  2  0
  6  7  1  0
  7  8  1  0
  8  9  1  0
  9 10  2  0
  9 11  2  0
  9 12  1  0
  7 13  2  0
 13 14  1  0
  2 15  1  0
 15 16  2  0
 15 17  1  0
 14  4  2  0
M  END
>  <rName>  (445) 
Tyr_SO3H

>  <PQ_SYMBOL>  (445) 
Tyr_SO3H

>  <FULL_NAME>  (445) 
O-Sulfo-L-Tyrosine

>  <IUPAC_CONDENSED>  (445) 
Tyr(SO3H)

>  <IUPAC>  (445) 
4-((2S)-2-amino-3-hydroxy-3-oxopropyl)phenyl hydrogen sulfate

>  <TYPE>  (445) 
Backbone

>  <CLASS>  (445) 
alpha

>  <ANALOG>  (445) 
Tyr

>  <MOL_WT>  (445) 
261.25499999999994

>  <LOGP>  (445) 
-0.17740000000000028

>  <TPSA>  (445) 
126.92

>  <POPULARITY>  (445) 
43

>  <PROTECTED>  (445) 
FALSE

>  <SMILES>  (445) 
N[C@@H](Cc1(ccc(OS(=O)(=O)O)cc1))C(=O)O

>  <INCHIKEY>  (445) 
CIQHWLTYGMYQQR-QMMMGPOBSA-N

$$$$
Nle
     RDKit          2D

  9  8  0  0  0  0  0  0  0  0999 V2000
    0.7616   -1.8791    0.0000 N   0  0  0  0  0  0  0  0  0  0  0  0
    0.8459   -0.3815    0.0000 C   0  0  0  0  0  0  0  0  0  0  0  0
   -0.4089    0.4403    0.0000 C   0  0  0  0  0  0  0  0  0  0  0  0
   -1.7480   -0.2354    0.0000 C   0  0  0  0  0  0  0  0  0  0  0  0
   -3.0029    0.5864    0.0000 C   0  0  0  0  0  0  0  0  0  0  0  0
   -4.3420   -0.0894    0.0000 C   0  0  0  0  0  0  0  0  0  0  0  0
    2.1851    0.2943    0.0000 C   0  0  0  0  0  0  0  0  0  0  0  0
    2.2694    1.7919    0.0000 O   0  0  0  0  0  0  0  0  0  0  0  0
    3.4399   -0.5275    0.0000 O   0  0  0  0  0  0  0  0  0  0  0  0
  2  1  1  1
  2  3  1  0
  3  4  1  0
  4  5  1  0
  5  6  1  0
  2  7  1  0
  7  8  2  0
  7  9  1  0
M  END
>  <rName>  (446) 
Nle

>  <PQ_SYMBOL>  (446) 
Nle

>  <FULL_NAME>  (446) 
L-Norleucine

>  <IUPAC_CONDENSED>  (446) 
Nle

>  <IUPAC>  (446) 
(2S)-2-aminohexanoic acid

>  <TYPE>  (446) 
Backbone

>  <CLASS>  (446) 
alpha

>  <ANALOG>  (446) 
Leu

>  <MOL_WT>  (446) 
131.175

>  <LOGP>  (446) 
0.5884999999999998

>  <TPSA>  (446) 
63.32000000000001

>  <POPULARITY>  (446) 
60.3

>  <PROTECTED>  (446) 
TRUE

>  <SMILES>  (446) 
N[C@@H](CCCC)C(=O)O

>  <INCHIKEY>  (446) 
LRQKBLKVPFOOQJ-YFKPBYRVSA-N

$$$$
Met_O2
     RDKit          2D

 11 10  0  0  0  0  0  0  0  0999 V2000
    1.5275   -1.9644    0.0000 N   0  0  0  0  0  0  0  0  0  0  0  0
    1.4450   -0.4666    0.0000 C   0  0  0  0  0  0  0  0  0  0  0  0
    0.1067    0.2107    0.0000 C   0  0  0  0  0  0  0  0  0  0  0  0
   -1.1491   -0.6096    0.0000 C   0  0  0  0  0  0  0  0  0  0  0  0
   -2.4875    0.0678    0.0000 S   0  0  0  0  0  0  0  0  0  0  0  0
   -3.1649   -1.2706    0.0000 O   0  0  0  0  0  0  0  0  0  0  0  0
   -1.8101    1.4061    0.0000 O   0  0  0  0  0  0  0  0  0  0  0  0
   -3.8258    0.7452    0.0000 C   0  0  0  0  0  0  0  0  0  0  0  0
    2.7008    0.3537    0.0000 C   0  0  0  0  0  0  0  0  0  0  0  0
    2.6183    1.8514    0.0000 O   0  0  0  0  0  0  0  0  0  0  0  0
    4.0391   -0.3237    0.0000 O   0  0  0  0  0  0  0  0  0  0  0  0
  2  1  1  1
  2  3  1  0
  3  4  1  0
  4  5  1  0
  5  6  2  0
  5  7  2  0
  5  8  1  0
  2  9  1  0
  9 10  2  0
  9 11  1  0
M  END
>  <rName>  (447) 
Met_O2

>  <PQ_SYMBOL>  (447) 
Met_O2

>  <FULL_NAME>  (447) 
L-Methionine Sulfone

>  <IUPAC_CONDENSED>  (447) 
Met(O2)

>  <IUPAC>  (447) 
(2S)-2-amino-4-(methylsulfonyl)butanoic acid

>  <TYPE>  (447) 
Backbone

>  <CLASS>  (447) 
alpha

>  <ANALOG>  (447) 
X

>  <MOL_WT>  (447) 
181.213

>  <LOGP>  (447) 
-1.167

>  <TPSA>  (447) 
97.46000000000001

>  <POPULARITY>  (447) 
31.8

>  <PROTECTED>  (447) 
TRUE

>  <SMILES>  (447) 
N[C@@H](CCS(=O)(=O)C)C(=O)O

>  <INCHIKEY>  (447) 
UCUNFLYVYCGDHP-BYPYZUCNSA-N

$$$$
Abu_ethynyl
     RDKit          2D

  9  8  0  0  0  0  0  0  0  0999 V2000
   -1.0341    1.9185    0.0000 N   0  0  0  0  0  0  0  0  0  0  0  0
   -0.9057    0.4240    0.0000 C   0  0  0  0  0  0  0  0  0  0  0  0
    0.4528   -0.2120    0.0000 C   0  0  0  0  0  0  0  0  0  0  0  0
    1.6829    0.6465    0.0000 C   0  0  0  0  0  0  0  0  0  0  0  0
    3.0414    0.0105    0.0000 C   0  0  0  0  0  0  0  0  0  0  0  0
    4.3999   -0.6255    0.0000 C   0  0  0  0  0  0  0  0  0  0  0  0
   -2.1357   -0.4345    0.0000 C   0  0  0  0  0  0  0  0  0  0  0  0
   -2.0072   -1.9290    0.0000 O   0  0  0  0  0  0  0  0  0  0  0  0
   -3.4942    0.2015    0.0000 O   0  0  0  0  0  0  0  0  0  0  0  0
  2  1  1  1
  2  3  1  0
  3  4  1  0
  4  5  1  0
  5  6  3  0
  2  7  1  0
  7  8  2  0
  7  9  1  0
M  END
>  <rName>  (448) 
Abu_ethynyl

>  <PQ_SYMBOL>  (448) 
Abu_ethynyl

>  <FULL_NAME>  (448) 
L-Homopropargylglycine

>  <IUPAC_CONDENSED>  (448) 
Abu(ethynyl)

>  <IUPAC>  (448) 
(2S)-2-aminohex-5-ynoic acid

>  <TYPE>  (448) 
Backbone

>  <CLASS>  (448) 
alpha

>  <ANALOG>  (448) 
Leu

>  <MOL_WT>  (448) 
127.14299999999997

>  <LOGP>  (448) 
-0.18829999999999997

>  <TPSA>  (448) 
63.32000000000001

>  <POPULARITY>  (448) 
7.8

>  <PROTECTED>  (448) 
TRUE

>  <SMILES>  (448) 
N[C@@H](CCC#C)C(=O)O

>  <INCHIKEY>  (448) 
SCGJGNWMYSYORS-YFKPBYRVSA-N

$$$$
NMe-D
     RDKit          2D

 10  9  0  0  0  0  0  0  0  0999 V2000
   -1.8138    1.4604    0.0000 N   0  0  0  0  0  0  0  0  0  0  0  0
   -3.1802    0.8418    0.0000 C   0  0  0  0  0  0  0  0  0  0  0  0
   -0.5948    0.5863    0.0000 C   0  0  0  0  0  0  0  0  0  0  0  0
    0.7717    1.2050    0.0000 C   0  0  0  0  0  0  0  0  0  0  0  0
    1.9907    0.3309    0.0000 C   0  0  0  0  0  0  0  0  0  0  0  0
    1.8433   -1.1619    0.0000 O   0  0  0  0  0  0  0  0  0  0  0  0
    3.3572    0.9495    0.0000 O   0  0  0  0  0  0  0  0  0  0  0  0
   -0.7422   -0.9064    0.0000 C   0  0  0  0  0  0  0  0  0  0  0  0
   -2.1087   -1.5251    0.0000 O   0  0  0  0  0  0  0  0  0  0  0  0
    0.4768   -1.7805    0.0000 O   0  0  0  0  0  0  0  0  0  0  0  0
  1  2  1  0
  1  3  1  0
  3  4  1  1
  4  5  1  0
  5  6  2  0
  5  7  1  0
  3  8  1  0
  8  9  2  0
  8 10  1  0
M  END
>  <rName>  (449) 
NMe-D

>  <PQ_SYMBOL>  (449) 
NMe-D

>  <FULL_NAME>  (449) 
N-Methyl-L-Aspartic acid

>  <IUPAC_CONDENSED>  (449) 
Me-Asp

>  <IUPAC>  (449) 
(2S)-2-(methylamino)succinic acid

>  <TYPE>  (449) 
Backbone

>  <CLASS>  (449) 
alpha

>  <ANALOG>  (449) 
Asp

>  <MOL_WT>  (449) 
147.13

>  <LOGP>  (449) 
-0.8663000000000001

>  <TPSA>  (449) 
86.63000000000001

>  <POPULARITY>  (449) 
23.1

>  <PROTECTED>  (449) 
TRUE

>  <SMILES>  (449) 
N(C)[C@@H](CC(=O)O)C(=O)O

>  <INCHIKEY>  (449) 
HOKKHZGPKSLGJE-VKHMYHEASA-N

$$$$
NMe-dD
     RDKit          2D

 10  9  0  0  0  0  0  0  0  0999 V2000
   -1.8138    1.4604    0.0000 N   0  0  0  0  0  0  0  0  0  0  0  0
   -3.1802    0.8418    0.0000 C   0  0  0  0  0  0  0  0  0  0  0  0
   -0.5948    0.5863    0.0000 C   0  0  0  0  0  0  0  0  0  0  0  0
    0.7717    1.2050    0.0000 C   0  0  0  0  0  0  0  0  0  0  0  0
    1.9907    0.3309    0.0000 C   0  0  0  0  0  0  0  0  0  0  0  0
    1.8433   -1.1619    0.0000 O   0  0  0  0  0  0  0  0  0  0  0  0
    3.3572    0.9495    0.0000 O   0  0  0  0  0  0  0  0  0  0  0  0
   -0.7422   -0.9064    0.0000 C   0  0  0  0  0  0  0  0  0  0  0  0
   -2.1087   -1.5251    0.0000 O   0  0  0  0  0  0  0  0  0  0  0  0
    0.4768   -1.7805    0.0000 O   0  0  0  0  0  0  0  0  0  0  0  0
  1  2  1  0
  1  3  1  0
  3  4  1  6
  4  5  1  0
  5  6  2  0
  5  7  1  0
  3  8  1  0
  8  9  2  0
  8 10  1  0
M  END
>  <rName>  (450) 
NMe-dD

>  <PQ_SYMBOL>  (450) 
NMe-dD

>  <FULL_NAME>  (450) 
N-Methyl-D-Aspartic acid

>  <IUPAC_CONDENSED>  (450) 
Me-D-Asp

>  <IUPAC>  (450) 
(2R)-2-(methylamino)succinic acid

>  <TYPE>  (450) 
Backbone

>  <CLASS>  (450) 
alpha

>  <ANALOG>  (450) 
Asp

>  <MOL_WT>  (450) 
147.13

>  <LOGP>  (450) 
-0.8663000000000001

>  <TPSA>  (450) 
86.63000000000001

>  <POPULARITY>  (450) 
20.5

>  <PROTECTED>  (450) 
TRUE

>  <SMILES>  (450) 
N(C)[C@H](CC(=O)O)C(=O)O

>  <INCHIKEY>  (450) 
HOKKHZGPKSLGJE-GSVOUGTGSA-N

$$$$
1Nal
     RDKit          2D

 16 17  0  0  0  0  0  0  0  0999 V2000
   -2.7457   -1.6512    0.0000 N   0  0  0  0  0  0  0  0  0  0  0  0
   -2.6203   -0.1565    0.0000 C   0  0  0  0  0  0  0  0  0  0  0  0
   -1.2631    0.4823    0.0000 C   0  0  0  0  0  0  0  0  0  0  0  0
   -0.0314   -0.3737    0.0000 C   0  0  0  0  0  0  0  0  0  0  0  0
   -0.1568   -1.8684    0.0000 C   0  0  0  0  0  0  0  0  0  0  0  0
    1.0750   -2.7244    0.0000 C   0  0  0  0  0  0  0  0  0  0  0  0
    2.4322   -2.0856    0.0000 C   0  0  0  0  0  0  0  0  0  0  0  0
    2.5576   -0.5909    0.0000 C   0  0  0  0  0  0  0  0  0  0  0  0
    3.9148    0.0479    0.0000 C   0  0  0  0  0  0  0  0  0  0  0  0
    4.0402    1.5426    0.0000 C   0  0  0  0  0  0  0  0  0  0  0  0
    2.8084    2.3986    0.0000 C   0  0  0  0  0  0  0  0  0  0  0  0
    1.4512    1.7598    0.0000 C   0  0  0  0  0  0  0  0  0  0  0  0
    1.3258    0.2651    0.0000 C   0  0  0  0  0  0  0  0  0  0  0  0
   -3.8521    0.6995    0.0000 C   0  0  0  0  0  0  0  0  0  0  0  0
   -3.7267    2.1942    0.0000 O   0  0  0  0  0  0  0  0  0  0  0  0
   -5.2093    0.0607    0.0000 O   0  0  0  0  0  0  0  0  0  0  0  0
  2  1  1  6
  2  3  1  0
  3  4  1  0
  4  5  2  0
  5  6  1  0
  6  7  2  0
  7  8  1  0
  8  9  2  0
  9 10  1  0
 10 11  2  0
 11 12  1  0
 12 13  2  0
  2 14  1  0
 14 15  2  0
 14 16  1  0
 13  4  1  0
 13  8  1  0
M  END
>  <rName>  (451) 
1Nal

>  <PQ_SYMBOL>  (451) 
1Nal

>  <FULL_NAME>  (451) 
3-(1-naphthyl)-L-Alanine

>  <IUPAC_CONDENSED>  (451) 
1Nal

>  <IUPAC>  (451) 
(2S)-2-amino-3-(naphthalen-1-yl)propanoic acid

>  <TYPE>  (451) 
Backbone

>  <CLASS>  (451) 
alpha

>  <ANALOG>  (451) 
Phe

>  <MOL_WT>  (451) 
215.25199999999998

>  <LOGP>  (451) 
1.7942

>  <TPSA>  (451) 
63.32000000000001

>  <POPULARITY>  (451) 
35.8

>  <PROTECTED>  (451) 
TRUE

>  <SMILES>  (451) 
N[C@@H](Cc1(cccc2(ccccc12)))C(=O)O

>  <INCHIKEY>  (451) 
OFYAYGJCPXRNBL-LBPRGKRZSA-N

$$$$
2Nal
     RDKit          2D

 16 17  0  0  0  0  0  0  0  0999 V2000
   -2.0722    1.6358    0.0000 N   0  0  0  0  0  0  0  0  0  0  0  0
   -2.7778    0.3121    0.0000 C   0  0  0  0  0  0  0  0  0  0  0  0
   -1.9842   -0.9608    0.0000 C   0  0  0  0  0  0  0  0  0  0  0  0
   -0.4851   -0.9100    0.0000 C   0  0  0  0  0  0  0  0  0  0  0  0
    0.3084   -2.1829    0.0000 C   0  0  0  0  0  0  0  0  0  0  0  0
    1.8076   -2.1322    0.0000 C   0  0  0  0  0  0  0  0  0  0  0  0
    2.5132   -0.8085    0.0000 C   0  0  0  0  0  0  0  0  0  0  0  0
    4.0123   -0.7577    0.0000 C   0  0  0  0  0  0  0  0  0  0  0  0
    4.7179    0.5659    0.0000 C   0  0  0  0  0  0  0  0  0  0  0  0
    3.9244    1.8388    0.0000 C   0  0  0  0  0  0  0  0  0  0  0  0
    2.4253    1.7881    0.0000 C   0  0  0  0  0  0  0  0  0  0  0  0
    1.7196    0.4644    0.0000 C   0  0  0  0  0  0  0  0  0  0  0  0
    0.2205    0.4136    0.0000 C   0  0  0  0  0  0  0  0  0  0  0  0
   -4.2769    0.2614    0.0000 C   0  0  0  0  0  0  0  0  0  0  0  0
   -4.9825   -1.0623    0.0000 O   0  0  0  0  0  0  0  0  0  0  0  0
   -5.0704    1.5343    0.0000 O   0  0  0  0  0  0  0  0  0  0  0  0
  2  1  1  1
  2  3  1  0
  3  4  1  0
  4  5  1  0
  5  6  2  0
  6  7  1  0
  7  8  2  0
  8  9  1  0
  9 10  2  0
 10 11  1  0
 11 12  2  0
 12 13  1  0
  2 14  1  0
 14 15  2  0
 14 16  1  0
 12  7  1  0
 13  4  2  0
M  END
>  <rName>  (452) 
2Nal

>  <PQ_SYMBOL>  (452) 
2Nal

>  <FULL_NAME>  (452) 
3-(2-naphthyl)-L-Alanine

>  <IUPAC_CONDENSED>  (452) 
2Nal

>  <IUPAC>  (452) 
(2S)-2-amino-3-(naphthalen-2-yl)propanoic acid

>  <TYPE>  (452) 
Backbone

>  <CLASS>  (452) 
alpha

>  <ANALOG>  (452) 
Phe

>  <MOL_WT>  (452) 
215.25199999999998

>  <LOGP>  (452) 
1.7942

>  <TPSA>  (452) 
63.32000000000001

>  <POPULARITY>  (452) 
40.6

>  <PROTECTED>  (452) 
TRUE

>  <SMILES>  (452) 
N[C@@H](Cc2(ccc1(ccccc1c2)))C(=O)O

>  <INCHIKEY>  (452) 
JPZXHKDZASGCLU-LBPRGKRZSA-N

$$$$
NMe-F
     RDKit          2D

 13 13  0  0  0  0  0  0  0  0999 V2000
   -1.1846    1.3730    0.0000 N   0  0  0  0  0  0  0  0  0  0  0  0
   -2.3388    2.3311    0.0000 C   0  0  0  0  0  0  0  0  0  0  0  0
   -1.4373   -0.1056    0.0000 C   0  0  0  0  0  0  0  0  0  0  0  0
   -0.2831   -1.0637    0.0000 C   0  0  0  0  0  0  0  0  0  0  0  0
    1.1237   -0.5432    0.0000 C   0  0  0  0  0  0  0  0  0  0  0  0
    1.3763    0.9354    0.0000 C   0  0  0  0  0  0  0  0  0  0  0  0
    2.7831    1.4559    0.0000 C   0  0  0  0  0  0  0  0  0  0  0  0
    3.9373    0.4978    0.0000 C   0  0  0  0  0  0  0  0  0  0  0  0
    3.6846   -0.9808    0.0000 C   0  0  0  0  0  0  0  0  0  0  0  0
    2.2778   -1.5013    0.0000 C   0  0  0  0  0  0  0  0  0  0  0  0
   -2.8441   -0.6260    0.0000 C   0  0  0  0  0  0  0  0  0  0  0  0
   -3.0967   -2.1046    0.0000 O   0  0  0  0  0  0  0  0  0  0  0  0
   -3.9982    0.3321    0.0000 O   0  0  0  0  0  0  0  0  0  0  0  0
  1  2  1  0
  1  3  1  0
  3  4  1  1
  4  5  1  0
  5  6  2  0
  6  7  1  0
  7  8  2  0
  8  9  1  0
  9 10  2  0
  3 11  1  0
 11 12  2  0
 11 13  1  0
 10  5  1  0
M  END
>  <rName>  (453) 
NMe-F

>  <PQ_SYMBOL>  (453) 
NMe-F

>  <FULL_NAME>  (453) 
N-methyl-L-Phenylalanine

>  <IUPAC_CONDENSED>  (453) 
Me-Phe

>  <IUPAC>  (453) 
(2S)-2-(methylamino)-3-phenylpropanoic acid

>  <TYPE>  (453) 
Backbone

>  <CLASS>  (453) 
alpha

>  <ANALOG>  (453) 
Phe

>  <MOL_WT>  (453) 
179.21899999999997

>  <LOGP>  (453) 
0.9017

>  <TPSA>  (453) 
49.33

>  <POPULARITY>  (453) 
51.6

>  <PROTECTED>  (453) 
TRUE

>  <SMILES>  (453) 
N(C)[C@@H](Cc1(ccccc1))C(=O)O

>  <INCHIKEY>  (453) 
SCIFESDRCALIIM-VIFPVBQESA-N

$$$$
NMe-1Nal
     RDKit          2D

 17 18  0  0  0  0  0  0  0  0999 V2000
   -2.6226   -1.3014    0.0000 N   0  0  0  0  0  0  0  0  0  0  0  0
   -4.0285   -1.8243    0.0000 C   0  0  0  0  0  0  0  0  0  0  0  0
   -2.3724    0.1776    0.0000 C   0  0  0  0  0  0  0  0  0  0  0  0
   -0.9665    0.7004    0.0000 C   0  0  0  0  0  0  0  0  0  0  0  0
    0.1892   -0.2557    0.0000 C   0  0  0  0  0  0  0  0  0  0  0  0
   -0.0609   -1.7347    0.0000 C   0  0  0  0  0  0  0  0  0  0  0  0
    1.0949   -2.6909    0.0000 C   0  0  0  0  0  0  0  0  0  0  0  0
    2.5008   -2.1680    0.0000 C   0  0  0  0  0  0  0  0  0  0  0  0
    2.7509   -0.6890    0.0000 C   0  0  0  0  0  0  0  0  0  0  0  0
    4.1569   -0.1662    0.0000 C   0  0  0  0  0  0  0  0  0  0  0  0
    4.4070    1.3128    0.0000 C   0  0  0  0  0  0  0  0  0  0  0  0
    3.2512    2.2690    0.0000 C   0  0  0  0  0  0  0  0  0  0  0  0
    1.8453    1.7461    0.0000 C   0  0  0  0  0  0  0  0  0  0  0  0
    1.5952    0.2671    0.0000 C   0  0  0  0  0  0  0  0  0  0  0  0
   -3.5282    1.1337    0.0000 C   0  0  0  0  0  0  0  0  0  0  0  0
   -3.2781    2.6127    0.0000 O   0  0  0  0  0  0  0  0  0  0  0  0
   -4.9341    0.6108    0.0000 O   0  0  0  0  0  0  0  0  0  0  0  0
  1  2  1  0
  1  3  1  0
  3  4  1  6
  4  5  1  0
  5  6  2  0
  6  7  1  0
  7  8  2  0
  8  9  1  0
  9 10  2  0
 10 11  1  0
 11 12  2  0
 12 13  1  0
 13 14  2  0
  3 15  1  0
 15 16  2  0
 15 17  1  0
 14  5  1  0
 14  9  1  0
M  END
>  <rName>  (454) 
NMe-1Nal

>  <PQ_SYMBOL>  (454) 
NMe-1Nal

>  <FULL_NAME>  (454) 
N-methyl-3-(1-naphthyl)-L-Alanine

>  <IUPAC_CONDENSED>  (454) 
Me-1Nal

>  <IUPAC>  (454) 
(2S)-2-(methylamino)-3-(naphthalen-1-yl)propanoic acid

>  <TYPE>  (454) 
Backbone

>  <CLASS>  (454) 
alpha

>  <ANALOG>  (454) 
Phe

>  <MOL_WT>  (454) 
229.279

>  <LOGP>  (454) 
2.0548999999999995

>  <TPSA>  (454) 
49.33

>  <POPULARITY>  (454) 
9.8

>  <PROTECTED>  (454) 
TRUE

>  <SMILES>  (454) 
N(C)[C@@H](Cc1(cccc2(ccccc12)))C(=O)O

>  <INCHIKEY>  (454) 
BNIHASXPOKDHFH-ZDUSSCGKSA-N

$$$$
NMe-2Nal
     RDKit          2D

 17 18  0  0  0  0  0  0  0  0999 V2000
   -1.9873    1.3489    0.0000 N   0  0  0  0  0  0  0  0  0  0  0  0
   -2.8552    2.5724    0.0000 C   0  0  0  0  0  0  0  0  0  0  0  0
   -2.6130   -0.0144    0.0000 C   0  0  0  0  0  0  0  0  0  0  0  0
   -1.7451   -1.2379    0.0000 C   0  0  0  0  0  0  0  0  0  0  0  0
   -0.2517   -1.0980    0.0000 C   0  0  0  0  0  0  0  0  0  0  0  0
    0.6162   -2.3215    0.0000 C   0  0  0  0  0  0  0  0  0  0  0  0
    2.1096   -2.1817    0.0000 C   0  0  0  0  0  0  0  0  0  0  0  0
    2.7353   -0.8184    0.0000 C   0  0  0  0  0  0  0  0  0  0  0  0
    4.2287   -0.6785    0.0000 C   0  0  0  0  0  0  0  0  0  0  0  0
    4.8544    0.6848    0.0000 C   0  0  0  0  0  0  0  0  0  0  0  0
    3.9865    1.9082    0.0000 C   0  0  0  0  0  0  0  0  0  0  0  0
    2.4931    1.7684    0.0000 C   0  0  0  0  0  0  0  0  0  0  0  0
    1.8674    0.4051    0.0000 C   0  0  0  0  0  0  0  0  0  0  0  0
    0.3740    0.2653    0.0000 C   0  0  0  0  0  0  0  0  0  0  0  0
   -4.1064   -0.1542    0.0000 C   0  0  0  0  0  0  0  0  0  0  0  0
   -4.7321   -1.5175    0.0000 O   0  0  0  0  0  0  0  0  0  0  0  0
   -4.9743    1.0692    0.0000 O   0  0  0  0  0  0  0  0  0  0  0  0
  1  2  1  0
  1  3  1  0
  3  4  1  1
  4  5  1  0
  5  6  1  0
  6  7  2  0
  7  8  1  0
  8  9  2  0
  9 10  1  0
 10 11  2  0
 11 12  1  0
 12 13  2  0
 13 14  1  0
  3 15  1  0
 15 16  2  0
 15 17  1  0
 13  8  1  0
 14  5  2  0
M  END
>  <rName>  (455) 
NMe-2Nal

>  <PQ_SYMBOL>  (455) 
NMe-2Nal

>  <FULL_NAME>  (455) 
N-methyl-3-(2-naphthyl)-L-Alanine

>  <IUPAC_CONDENSED>  (455) 
Me-2Nal

>  <IUPAC>  (455) 
(2S)-2-(methylamino)-3-(naphthalen-2-yl)propanoic acid

>  <TYPE>  (455) 
Backbone

>  <CLASS>  (455) 
alpha

>  <ANALOG>  (455) 
Phe

>  <MOL_WT>  (455) 
229.279

>  <LOGP>  (455) 
2.0548999999999995

>  <TPSA>  (455) 
49.33

>  <POPULARITY>  (455) 
13.8

>  <PROTECTED>  (455) 
TRUE

>  <SMILES>  (455) 
N(C)[C@@H](Cc2(ccc1(ccccc1c2)))C(=O)O

>  <INCHIKEY>  (455) 
XRBFRWVSTGFFCB-ZDUSSCGKSA-N

$$$$
NMe-W
     RDKit          2D

 16 17  0  0  0  0  0  0  0  0999 V2000
   -2.4834   -1.3664    0.0000 N   0  0  0  0  0  0  0  0  0  0  0  0
   -3.8593   -1.9639    0.0000 C   0  0  0  0  0  0  0  0  0  0  0  0
   -2.3129    0.1239    0.0000 C   0  0  0  0  0  0  0  0  0  0  0  0
   -0.9371    0.7214    0.0000 C   0  0  0  0  0  0  0  0  0  0  0  0
    0.2683   -0.1714    0.0000 C   0  0  0  0  0  0  0  0  0  0  0  0
    0.2545   -1.6713    0.0000 C   0  0  0  0  0  0  0  0  0  0  0  0
    1.6768   -2.1479    0.0000 N   0  0  0  0  0  0  0  0  0  0  0  0
    2.5696   -0.9425    0.0000 C   0  0  0  0  0  0  0  0  0  0  0  0
    4.0627   -0.7995    0.0000 C   0  0  0  0  0  0  0  0  0  0  0  0
    4.6854    0.5652    0.0000 C   0  0  0  0  0  0  0  0  0  0  0  0
    3.8149    1.7868    0.0000 C   0  0  0  0  0  0  0  0  0  0  0  0
    2.3217    1.6437    0.0000 C   0  0  0  0  0  0  0  0  0  0  0  0
    1.6991    0.2790    0.0000 C   0  0  0  0  0  0  0  0  0  0  0  0
   -3.5183    1.0167    0.0000 C   0  0  0  0  0  0  0  0  0  0  0  0
   -3.3478    2.5070    0.0000 O   0  0  0  0  0  0  0  0  0  0  0  0
   -4.8942    0.4192    0.0000 O   0  0  0  0  0  0  0  0  0  0  0  0
  1  2  1  0
  1  3  1  0
  3  4  1  6
  4  5  1  0
  5  6  2  0
  6  7  1  0
  7  8  1  0
  8  9  2  0
  9 10  1  0
 10 11  2  0
 11 12  1  0
 12 13  2  0
  3 14  1  0
 14 15  2  0
 14 16  1  0
 13  5  1  0
 13  8  1  0
M  END
>  <rName>  (456) 
NMe-W

>  <PQ_SYMBOL>  (456) 
NMe-W

>  <FULL_NAME>  (456) 
N-methyl-L-Tryptophan

>  <IUPAC_CONDENSED>  (456) 
Me-Trp

>  <IUPAC>  (456) 
(2S)-3-(1H-indol-3-yl)-2-(methylamino)propanoic acid

>  <TYPE>  (456) 
Backbone

>  <CLASS>  (456) 
alpha

>  <ANALOG>  (456) 
Trp

>  <MOL_WT>  (456) 
218.256

>  <LOGP>  (456) 
1.383

>  <TPSA>  (456) 
65.12

>  <POPULARITY>  (456) 
31.5

>  <PROTECTED>  (456) 
TRUE

>  <SMILES>  (456) 
N(C)[C@@H](Cc1(c[nH]c2(ccccc12)))C(=O)O

>  <INCHIKEY>  (456) 
CZCIKBSVHDNIDH-NSHDSACASA-N

$$$$
Orn
     RDKit          2D

  9  8  0  0  0  0  0  0  0  0999 V2000
   -0.7616    1.8791    0.0000 N   0  0  0  0  0  0  0  0  0  0  0  0
   -0.8459    0.3815    0.0000 C   0  0  0  0  0  0  0  0  0  0  0  0
    0.4089   -0.4403    0.0000 C   0  0  0  0  0  0  0  0  0  0  0  0
    1.7480    0.2354    0.0000 C   0  0  0  0  0  0  0  0  0  0  0  0
    3.0029   -0.5864    0.0000 C   0  0  0  0  0  0  0  0  0  0  0  0
    4.3420    0.0894    0.0000 N   0  0  0  0  0  0  0  0  0  0  0  0
   -2.1851   -0.2943    0.0000 C   0  0  0  0  0  0  0  0  0  0  0  0
   -2.2694   -1.7919    0.0000 O   0  0  0  0  0  0  0  0  0  0  0  0
   -3.4399    0.5275    0.0000 O   0  0  0  0  0  0  0  0  0  0  0  0
  2  1  1  1
  2  3  1  0
  3  4  1  0
  4  5  1  0
  5  6  1  0
  2  7  1  0
  7  8  2  0
  7  9  1  0
M  END
>  <rName>  (457) 
Orn

>  <PQ_SYMBOL>  (457) 
Orn

>  <FULL_NAME>  (457) 
L-Ornithine

>  <IUPAC_CONDENSED>  (457) 
Orn

>  <IUPAC>  (457) 
(2S)-2,5-diaminopentanoic acid

>  <TYPE>  (457) 
Backbone

>  <CLASS>  (457) 
alpha

>  <ANALOG>  (457) 
Lys

>  <MOL_WT>  (457) 
132.163

>  <LOGP>  (457) 
-0.8628

>  <TPSA>  (457) 
89.34

>  <POPULARITY>  (457) 
58.3

>  <PROTECTED>  (457) 
TRUE

>  <SMILES>  (457) 
N[C@@H](CCCN)C(=O)O

>  <INCHIKEY>  (457) 
AHLPHDHHMVZTML-BYPYZUCNSA-N

$$$$
Cit
     RDKit          2D

 12 11  0  0  0  0  0  0  0  0999 V2000
    2.4617   -1.9005    0.0000 N   0  0  0  0  0  0  0  0  0  0  0  0
    2.4001   -0.4018    0.0000 C   0  0  0  0  0  0  0  0  0  0  0  0
    1.0713    0.2943    0.0000 C   0  0  0  0  0  0  0  0  0  0  0  0
   -0.1958   -0.5085    0.0000 C   0  0  0  0  0  0  0  0  0  0  0  0
   -1.5245    0.1875    0.0000 C   0  0  0  0  0  0  0  0  0  0  0  0
   -2.7917   -0.6152    0.0000 N   0  0  0  0  0  0  0  0  0  0  0  0
   -4.1204    0.0808    0.0000 C   0  0  0  0  0  0  0  0  0  0  0  0
   -4.1820    1.5796    0.0000 O   0  0  0  0  0  0  0  0  0  0  0  0
   -5.3876   -0.7219    0.0000 N   0  0  0  0  0  0  0  0  0  0  0  0
    3.6672    0.4010    0.0000 C   0  0  0  0  0  0  0  0  0  0  0  0
    3.6056    1.8997    0.0000 O   0  0  0  0  0  0  0  0  0  0  0  0
    4.9960   -0.2950    0.0000 O   0  0  0  0  0  0  0  0  0  0  0  0
  2  1  1  1
  2  3  1  0
  3  4  1  0
  4  5  1  0
  5  6  1  0
  6  7  1  0
  7  8  2  0
  7  9  1  0
  2 10  1  0
 10 11  2  0
 10 12  1  0
M  END
>  <rName>  (458) 
Cit

>  <PQ_SYMBOL>  (458) 
Cit

>  <FULL_NAME>  (458) 
L-Citrulline

>  <IUPAC_CONDENSED>  (458) 
Cit

>  <IUPAC>  (458) 
(2S)-2-amino-5-(carbamoylamino)pentanoic acid

>  <TYPE>  (458) 
Backbone

>  <CLASS>  (458) 
alpha

>  <ANALOG>  (458) 
Arg

>  <MOL_WT>  (458) 
175.188

>  <LOGP>  (458) 
-1.1531999999999991

>  <TPSA>  (458) 
118.44000000000001

>  <POPULARITY>  (458) 
41.3

>  <PROTECTED>  (458) 
TRUE

>  <SMILES>  (458) 
N[C@@H](CCCNC(=O)N)C(=O)O

>  <INCHIKEY>  (458) 
RHGKLRLOHDJJDR-BYPYZUCNSA-N

$$$$
Sar
     RDKit          2D

  6  5  0  0  0  0  0  0  0  0999 V2000
   -1.4825    0.3386    0.0000 N   0  0  0  0  0  0  0  0  0  0  0  0
   -2.8748   -0.2197    0.0000 C   0  0  0  0  0  0  0  0  0  0  0  0
   -0.3029   -0.5880    0.0000 C   0  0  0  0  0  0  0  0  0  0  0  0
    1.0893   -0.0297    0.0000 C   0  0  0  0  0  0  0  0  0  0  0  0
    1.3020    1.4551    0.0000 O   0  0  0  0  0  0  0  0  0  0  0  0
    2.2689   -0.9563    0.0000 O   0  0  0  0  0  0  0  0  0  0  0  0
  1  2  1  0
  1  3  1  0
  3  4  1  0
  4  5  2  0
  4  6  1  0
M  END
>  <rName>  (459) 
Sar

>  <PQ_SYMBOL>  (459) 
Sar

>  <FULL_NAME>  (459) 
N-methyl-glycine, sarcosine

>  <IUPAC_CONDENSED>  (459) 
Sar

>  <IUPAC>  (459) 
2-(methylamino)acetic acid

>  <TYPE>  (459) 
Backbone

>  <CLASS>  (459) 
alpha

>  <ANALOG>  (459) 
Gly

>  <MOL_WT>  (459) 
89.09399999999998

>  <LOGP>  (459) 
-0.7096000000000002

>  <TPSA>  (459) 
49.33

>  <POPULARITY>  (459) 
59.1

>  <PROTECTED>  (459) 
TRUE

>  <SMILES>  (459) 
N(C)CC(=O)O

>  <INCHIKEY>  (459) 
FSYKKLYZXJSNPZ-UHFFFAOYSA-N

$$$$
Phe_4Cl
     RDKit          2D

 13 13  0  0  0  0  0  0  0  0999 V2000
   -1.5766    1.6851    0.0000 N   0  0  0  0  0  0  0  0  0  0  0  0
   -2.0128    0.2500    0.0000 C   0  0  0  0  0  0  0  0  0  0  0  0
   -0.9880   -0.8454    0.0000 C   0  0  0  0  0  0  0  0  0  0  0  0
    0.4730   -0.5055    0.0000 C   0  0  0  0  0  0  0  0  0  0  0  0
    0.9092    0.9296    0.0000 C   0  0  0  0  0  0  0  0  0  0  0  0
    2.3702    1.2695    0.0000 C   0  0  0  0  0  0  0  0  0  0  0  0
    3.3950    0.1741    0.0000 C   0  0  0  0  0  0  0  0  0  0  0  0
    4.8560    0.5140    0.0000 Cl  0  0  0  0  0  0  0  0  0  0  0  0
    2.9588   -1.2611    0.0000 C   0  0  0  0  0  0  0  0  0  0  0  0
    1.4978   -1.6009    0.0000 C   0  0  0  0  0  0  0  0  0  0  0  0
   -3.4738   -0.0899    0.0000 C   0  0  0  0  0  0  0  0  0  0  0  0
   -3.9100   -1.5250    0.0000 O   0  0  0  0  0  0  0  0  0  0  0  0
   -4.4986    1.0055    0.0000 O   0  0  0  0  0  0  0  0  0  0  0  0
  2  1  1  1
  2  3  1  0
  3  4  1  0
  4  5  1  0
  5  6  2  0
  6  7  1  0
  7  8  1  0
  7  9  2  0
  9 10  1  0
  2 11  1  0
 11 12  2  0
 11 13  1  0
 10  4  2  0
M  END
>  <rName>  (460) 
Phe_4Cl

>  <PQ_SYMBOL>  (460) 
Phe_4Cl

>  <FULL_NAME>  (460) 
4-Chloro-L-Phenylalanine

>  <IUPAC_CONDENSED>  (460) 
Phe(4-Cl)

>  <IUPAC>  (460) 
(2S)-2-amino-3-(4-chlorophenyl)propanoic acid

>  <TYPE>  (460) 
Backbone

>  <CLASS>  (460) 
alpha

>  <ANALOG>  (460) 
Phe

>  <MOL_WT>  (460) 
199.637

>  <LOGP>  (460) 
1.2944000000000002

>  <TPSA>  (460) 
63.32000000000001

>  <POPULARITY>  (460) 
31.7

>  <PROTECTED>  (460) 
TRUE

>  <SMILES>  (460) 
N[C@@H](Cc1(ccc(Cl)cc1))C(=O)O

>  <INCHIKEY>  (460) 
NIGWMJHCCYYCSF-QMMMGPOBSA-N

$$$$
Phe_4F
     RDKit          2D

 13 13  0  0  0  0  0  0  0  0999 V2000
   -1.5766    1.6851    0.0000 N   0  0  0  0  0  0  0  0  0  0  0  0
   -2.0128    0.2500    0.0000 C   0  0  0  0  0  0  0  0  0  0  0  0
   -0.9880   -0.8454    0.0000 C   0  0  0  0  0  0  0  0  0  0  0  0
    0.4730   -0.5055    0.0000 C   0  0  0  0  0  0  0  0  0  0  0  0
    0.9092    0.9296    0.0000 C   0  0  0  0  0  0  0  0  0  0  0  0
    2.3702    1.2695    0.0000 C   0  0  0  0  0  0  0  0  0  0  0  0
    3.3950    0.1741    0.0000 C   0  0  0  0  0  0  0  0  0  0  0  0
    4.8560    0.5140    0.0000 F   0  0  0  0  0  0  0  0  0  0  0  0
    2.9588   -1.2611    0.0000 C   0  0  0  0  0  0  0  0  0  0  0  0
    1.4978   -1.6009    0.0000 C   0  0  0  0  0  0  0  0  0  0  0  0
   -3.4738   -0.0899    0.0000 C   0  0  0  0  0  0  0  0  0  0  0  0
   -3.9100   -1.5250    0.0000 O   0  0  0  0  0  0  0  0  0  0  0  0
   -4.4986    1.0055    0.0000 O   0  0  0  0  0  0  0  0  0  0  0  0
  2  1  1  1
  2  3  1  0
  3  4  1  0
  4  5  1  0
  5  6  2  0
  6  7  1  0
  7  8  1  0
  7  9  2  0
  9 10  1  0
  2 11  1  0
 11 12  2  0
 11 13  1  0
 10  4  2  0
M  END
>  <rName>  (461) 
Phe_4F

>  <PQ_SYMBOL>  (461) 
Phe_4F

>  <FULL_NAME>  (461) 
4-Fluoro-L-Phenylalanine

>  <IUPAC_CONDENSED>  (461) 
Phe(4-F)

>  <IUPAC>  (461) 
(2S)-2-amino-3-(4-fluorophenyl)propanoic acid

>  <TYPE>  (461) 
Backbone

>  <CLASS>  (461) 
alpha

>  <ANALOG>  (461) 
Phe

>  <MOL_WT>  (461) 
183.182

>  <LOGP>  (461) 
0.7801

>  <TPSA>  (461) 
63.32000000000001

>  <POPULARITY>  (461) 
37.9

>  <PROTECTED>  (461) 
TRUE

>  <SMILES>  (461) 
N[C@@H](Cc1(ccc(F)cc1))C(=O)O

>  <INCHIKEY>  (461) 
XWHHYOYVRVGJJY-QMMMGPOBSA-N

$$$$
Phe_4I
     RDKit          2D

 13 13  0  0  0  0  0  0  0  0999 V2000
   -1.5766    1.6851    0.0000 N   0  0  0  0  0  0  0  0  0  0  0  0
   -2.0128    0.2500    0.0000 C   0  0  0  0  0  0  0  0  0  0  0  0
   -0.9880   -0.8454    0.0000 C   0  0  0  0  0  0  0  0  0  0  0  0
    0.4730   -0.5055    0.0000 C   0  0  0  0  0  0  0  0  0  0  0  0
    0.9092    0.9296    0.0000 C   0  0  0  0  0  0  0  0  0  0  0  0
    2.3702    1.2695    0.0000 C   0  0  0  0  0  0  0  0  0  0  0  0
    3.3950    0.1741    0.0000 C   0  0  0  0  0  0  0  0  0  0  0  0
    4.8560    0.5140    0.0000 I   0  0  0  0  0  0  0  0  0  0  0  0
    2.9588   -1.2611    0.0000 C   0  0  0  0  0  0  0  0  0  0  0  0
    1.4978   -1.6009    0.0000 C   0  0  0  0  0  0  0  0  0  0  0  0
   -3.4738   -0.0899    0.0000 C   0  0  0  0  0  0  0  0  0  0  0  0
   -3.9100   -1.5250    0.0000 O   0  0  0  0  0  0  0  0  0  0  0  0
   -4.4986    1.0055    0.0000 O   0  0  0  0  0  0  0  0  0  0  0  0
  2  1  1  1
  2  3  1  0
  3  4  1  0
  4  5  1  0
  5  6  2  0
  6  7  1  0
  7  8  1  0
  7  9  2  0
  9 10  1  0
  2 11  1  0
 11 12  2  0
 11 13  1  0
 10  4  2  0
M  END
>  <rName>  (462) 
Phe_4I

>  <PQ_SYMBOL>  (462) 
Phe_4I

>  <FULL_NAME>  (462) 
4-Iodo-L-Phenylalanine

>  <IUPAC_CONDENSED>  (462) 
Phe(4-I)

>  <IUPAC>  (462) 
(2S)-2-amino-3-(4-iodophenyl)propanoic acid

>  <TYPE>  (462) 
Backbone

>  <CLASS>  (462) 
alpha

>  <ANALOG>  (462) 
Phe

>  <MOL_WT>  (462) 
291.088

>  <LOGP>  (462) 
1.2456

>  <TPSA>  (462) 
63.32000000000001

>  <POPULARITY>  (462) 
37.9

>  <PROTECTED>  (462) 
TRUE

>  <SMILES>  (462) 
N[C@@H](Cc1(ccc(I)cc1))C(=O)O

>  <INCHIKEY>  (462) 
PZNQZSRPDOEBMS-QMMMGPOBSA-N

$$$$
Phe_4Me
     RDKit          2D

 13 13  0  0  0  0  0  0  0  0999 V2000
   -1.5766    1.6851    0.0000 N   0  0  0  0  0  0  0  0  0  0  0  0
   -2.0128    0.2500    0.0000 C   0  0  0  0  0  0  0  0  0  0  0  0
   -0.9880   -0.8454    0.0000 C   0  0  0  0  0  0  0  0  0  0  0  0
    0.4730   -0.5055    0.0000 C   0  0  0  0  0  0  0  0  0  0  0  0
    0.9092    0.9296    0.0000 C   0  0  0  0  0  0  0  0  0  0  0  0
    2.3702    1.2695    0.0000 C   0  0  0  0  0  0  0  0  0  0  0  0
    3.3950    0.1741    0.0000 C   0  0  0  0  0  0  0  0  0  0  0  0
    4.8560    0.5140    0.0000 C   0  0  0  0  0  0  0  0  0  0  0  0
    2.9588   -1.2611    0.0000 C   0  0  0  0  0  0  0  0  0  0  0  0
    1.4978   -1.6009    0.0000 C   0  0  0  0  0  0  0  0  0  0  0  0
   -3.4738   -0.0899    0.0000 C   0  0  0  0  0  0  0  0  0  0  0  0
   -3.9100   -1.5250    0.0000 O   0  0  0  0  0  0  0  0  0  0  0  0
   -4.4986    1.0055    0.0000 O   0  0  0  0  0  0  0  0  0  0  0  0
  2  1  1  1
  2  3  1  0
  3  4  1  0
  4  5  1  0
  5  6  2  0
  6  7  1  0
  7  8  1  0
  7  9  2  0
  9 10  1  0
  2 11  1  0
 11 12  2  0
 11 13  1  0
 10  4  2  0
M  END
>  <rName>  (463) 
Phe_4Me

>  <PQ_SYMBOL>  (463) 
Phe_4Me

>  <FULL_NAME>  (463) 
4-Methyl-L-Phenylalanine

>  <IUPAC_CONDENSED>  (463) 
Phe(4-Me)

>  <IUPAC>  (463) 
(2S)-2-amino-3-(4-methylphenyl)propanoic acid

>  <TYPE>  (463) 
Backbone

>  <CLASS>  (463) 
alpha

>  <ANALOG>  (463) 
Phe

>  <MOL_WT>  (463) 
179.21899999999997

>  <LOGP>  (463) 
0.9494199999999999

>  <TPSA>  (463) 
63.32000000000001

>  <POPULARITY>  (463) 
30.7

>  <PROTECTED>  (463) 
TRUE

>  <SMILES>  (463) 
N[C@@H](Cc1(ccc(C)cc1))C(=O)O

>  <INCHIKEY>  (463) 
DQLHSFUMICQIMB-VIFPVBQESA-N

$$$$
Hyp
     RDKit          2D

  9  9  0  0  0  0  0  0  0  0999 V2000
   -0.1792   -1.4541    0.0000 N   0  0  0  0  0  0  0  0  0  0  0  0
    0.4598   -0.0969    0.0000 C   0  0  0  0  0  0  0  0  0  0  0  0
   -0.6334    0.9301    0.0000 C   0  0  0  0  0  0  0  0  0  0  0  0
   -1.9481    0.2077    0.0000 C   0  0  0  0  0  0  0  0  0  0  0  0
   -3.3052    0.8467    0.0000 O   0  0  0  0  0  0  0  0  0  0  0  0
   -1.6673   -1.2657    0.0000 C   0  0  0  0  0  0  0  0  0  0  0  0
    1.9333    0.1838    0.0000 C   0  0  0  0  0  0  0  0  0  0  0  0
    2.4269    1.6003    0.0000 O   0  0  0  0  0  0  0  0  0  0  0  0
    2.9132   -0.9519    0.0000 O   0  0  0  0  0  0  0  0  0  0  0  0
  1  2  1  0
  2  3  1  0
  3  4  1  0
  4  5  1  6
  4  6  1  0
  2  7  1  1
  7  8  2  0
  7  9  1  0
  6  1  1  0
M  END
>  <rName>  (464) 
Hyp

>  <PQ_SYMBOL>  (464) 
Hyp

>  <FULL_NAME>  (464) 
trans-4-Hydroxy-L-proline

>  <IUPAC_CONDENSED>  (464) 
Hyp

>  <IUPAC>  (464) 
(2S,4R)-4-hydroxypyrrolidine-2-carboxylic acid

>  <TYPE>  (464) 
Backbone

>  <CLASS>  (464) 
alpha

>  <ANALOG>  (464) 
Pro

>  <MOL_WT>  (464) 
131.131

>  <LOGP>  (464) 
-1.2062000000000004

>  <TPSA>  (464) 
69.56

>  <POPULARITY>  (464) 
56

>  <PROTECTED>  (464) 
TRUE

>  <SMILES>  (464) 
N1[C@@H](C[C@@H](O)C1)C(=O)O

>  <INCHIKEY>  (464) 
PMMYEEVYMWASQN-DMTCNVIQSA-N

$$$$
Bip
     RDKit          2D

 18 19  0  0  0  0  0  0  0  0999 V2000
   -3.2769    1.7174    0.0000 N   0  0  0  0  0  0  0  0  0  0  0  0
   -3.8349    0.3251    0.0000 C   0  0  0  0  0  0  0  0  0  0  0  0
   -2.9082   -0.8544    0.0000 C   0  0  0  0  0  0  0  0  0  0  0  0
   -1.4234   -0.6415    0.0000 C   0  0  0  0  0  0  0  0  0  0  0  0
   -0.8653    0.7508    0.0000 C   0  0  0  0  0  0  0  0  0  0  0  0
    0.6195    0.9637    0.0000 C   0  0  0  0  0  0  0  0  0  0  0  0
    1.5463   -0.2158    0.0000 C   0  0  0  0  0  0  0  0  0  0  0  0
    0.9882   -1.6081    0.0000 C   0  0  0  0  0  0  0  0  0  0  0  0
   -0.4966   -1.8210    0.0000 C   0  0  0  0  0  0  0  0  0  0  0  0
    3.0311   -0.0029    0.0000 C   0  0  0  0  0  0  0  0  0  0  0  0
    3.9578   -1.1824    0.0000 C   0  0  0  0  0  0  0  0  0  0  0  0
    5.4427   -0.9695    0.0000 C   0  0  0  0  0  0  0  0  0  0  0  0
    6.0007    0.4228    0.0000 C   0  0  0  0  0  0  0  0  0  0  0  0
    5.0740    1.6023    0.0000 C   0  0  0  0  0  0  0  0  0  0  0  0
    3.5891    1.3894    0.0000 C   0  0  0  0  0  0  0  0  0  0  0  0
   -5.3198    0.1122    0.0000 C   0  0  0  0  0  0  0  0  0  0  0  0
   -5.8778   -1.2801    0.0000 O   0  0  0  0  0  0  0  0  0  0  0  0
   -6.2465    1.2917    0.0000 O   0  0  0  0  0  0  0  0  0  0  0  0
  2  1  1  1
  2  3  1  0
  3  4  1  0
  4  5  1  0
  5  6  2  0
  6  7  1  0
  7  8  2  0
  8  9  1  0
  7 10  1  0
 10 11  2  0
 11 12  1  0
 12 13  2  0
 13 14  1  0
 14 15  2  0
  2 16  1  0
 16 17  2  0
 16 18  1  0
  9  4  2  0
 15 10  1  0
M  END
>  <rName>  (465) 
Bip

>  <PQ_SYMBOL>  (465) 
Bip

>  <FULL_NAME>  (465) 
4-Phenyl-L-Phenylalanine (4'4-L-Biphenylalanine)

>  <IUPAC_CONDENSED>  (465) 
Bip

>  <IUPAC>  (465) 
(2S)-2-amino-3-(4-phenylphenyl)propanoic acid

>  <TYPE>  (465) 
Backbone

>  <CLASS>  (465) 
alpha

>  <ANALOG>  (465) 
Phe

>  <MOL_WT>  (465) 
241.29

>  <LOGP>  (465) 
2.308

>  <TPSA>  (465) 
63.32000000000001

>  <POPULARITY>  (465) 
33.3

>  <PROTECTED>  (465) 
TRUE

>  <SMILES>  (465) 
N[C@@H](Cc1(ccc(cc1)c2(ccccc2)))C(=O)O

>  <INCHIKEY>  (465) 
JCZLABDVDPYLRZ-AWEZNQCLSA-N

$$$$
Tic
     RDKit          2D

 13 14  0  0  0  0  0  0  0  0999 V2000
   -1.2457    1.5283    0.0000 N   0  0  0  0  0  0  0  0  0  0  0  0
   -1.6339    0.0794    0.0000 C   0  0  0  0  0  0  0  0  0  0  0  0
   -0.5733   -0.9812    0.0000 C   0  0  0  0  0  0  0  0  0  0  0  0
    0.8756   -0.5930    0.0000 C   0  0  0  0  0  0  0  0  0  0  0  0
    1.9363   -1.6536    0.0000 C   0  0  0  0  0  0  0  0  0  0  0  0
    3.3852   -1.2654    0.0000 C   0  0  0  0  0  0  0  0  0  0  0  0
    3.7734    0.1835    0.0000 C   0  0  0  0  0  0  0  0  0  0  0  0
    2.7127    1.2441    0.0000 C   0  0  0  0  0  0  0  0  0  0  0  0
    1.2638    0.8559    0.0000 C   0  0  0  0  0  0  0  0  0  0  0  0
    0.2032    1.9166    0.0000 C   0  0  0  0  0  0  0  0  0  0  0  0
   -3.0828   -0.3088    0.0000 C   0  0  0  0  0  0  0  0  0  0  0  0
   -3.4710   -1.7577    0.0000 O   0  0  0  0  0  0  0  0  0  0  0  0
   -4.1435    0.7519    0.0000 O   0  0  0  0  0  0  0  0  0  0  0  0
  1  2  1  0
  2  3  1  0
  3  4  1  0
  4  5  2  0
  5  6  1  0
  6  7  2  0
  7  8  1  0
  8  9  2  0
  9 10  1  0
  2 11  1  1
 11 12  2  0
 11 13  1  0
  9  4  1  0
 10  1  1  0
M  END
>  <rName>  (466) 
Tic

>  <PQ_SYMBOL>  (466) 
Tic

>  <FULL_NAME>  (466) 
L-Porretine

>  <IUPAC_CONDENSED>  (466) 
Tic

>  <IUPAC>  (466) 
(4S)-3-azabicyclo[4.4.0]deca-1(10),6,8-triene-4-carboxylic acid

>  <TYPE>  (466) 
Backbone

>  <CLASS>  (466) 
alpha

>  <ANALOG>  (466) 
Pro

>  <MOL_WT>  (466) 
177.20299999999995

>  <LOGP>  (466) 
0.7855000000000001

>  <TPSA>  (466) 
49.33

>  <POPULARITY>  (466) 
39.2

>  <PROTECTED>  (466) 
TRUE

>  <SMILES>  (466) 
N2[C@@H](Cc1(ccccc1C2))C(=O)O

>  <INCHIKEY>  (466) 
BWKMGYQJPOAASG-VIFPVBQESA-N

$$$$
NBn-G
     RDKit          2D

 12 12  0  0  0  0  0  0  0  0999 V2000
   -1.2194   -0.1693    0.0000 N   0  0  0  0  0  0  0  0  0  0  0  0
   -0.0183   -1.0678    0.0000 C   0  0  0  0  0  0  0  0  0  0  0  0
    1.3604   -0.4769    0.0000 C   0  0  0  0  0  0  0  0  0  0  0  0
    1.5380    1.0126    0.0000 C   0  0  0  0  0  0  0  0  0  0  0  0
    2.9167    1.6035    0.0000 C   0  0  0  0  0  0  0  0  0  0  0  0
    4.1178    0.7050    0.0000 C   0  0  0  0  0  0  0  0  0  0  0  0
    3.9402   -0.7845    0.0000 C   0  0  0  0  0  0  0  0  0  0  0  0
    2.5615   -1.3754    0.0000 C   0  0  0  0  0  0  0  0  0  0  0  0
   -2.5981   -0.7603    0.0000 C   0  0  0  0  0  0  0  0  0  0  0  0
   -3.7992    0.1382    0.0000 C   0  0  0  0  0  0  0  0  0  0  0  0
   -3.6216    1.6277    0.0000 O   0  0  0  0  0  0  0  0  0  0  0  0
   -5.1779   -0.4527    0.0000 O   0  0  0  0  0  0  0  0  0  0  0  0
  1  2  1  0
  2  3  1  0
  3  4  2  0
  4  5  1  0
  5  6  2  0
  6  7  1  0
  7  8  2  0
  1  9  1  0
  9 10  1  0
 10 11  2  0
 10 12  1  0
  8  3  1  0
M  END
>  <rName>  (467) 
NBn-G

>  <PQ_SYMBOL>  (467) 
NBn-G

>  <FULL_NAME>  (467) 
N-Benzyl-Glycine

>  <IUPAC_CONDENSED>  (467) 
Bn-Gly

>  <IUPAC>  (467) 
2-(benzylamino)acetic acid

>  <TYPE>  (467) 
Backbone

>  <CLASS>  (467) 
alpha

>  <ANALOG>  (467) 
Gly

>  <MOL_WT>  (467) 
165.19199999999998

>  <LOGP>  (467) 
0.8608

>  <TPSA>  (467) 
49.33

>  <POPULARITY>  (467) 
33.7

>  <PROTECTED>  (467) 
TRUE

>  <SMILES>  (467) 
N(Cc1(ccccc1))CC(=O)O

>  <INCHIKEY>  (467) 
KGSVNOLLROCJQM-UHFFFAOYSA-N

$$$$
Lys_Bz
     RDKit          2D

 18 18  0  0  0  0  0  0  0  0999 V2000
   -5.2698   -1.7320    0.0000 N   0  0  0  0  0  0  0  0  0  0  0  0
   -5.1566   -0.2362    0.0000 C   0  0  0  0  0  0  0  0  0  0  0  0
   -3.8046    0.4135    0.0000 C   0  0  0  0  0  0  0  0  0  0  0  0
   -2.5659   -0.4325    0.0000 C   0  0  0  0  0  0  0  0  0  0  0  0
   -1.2139    0.2173    0.0000 C   0  0  0  0  0  0  0  0  0  0  0  0
    0.0248   -0.6287    0.0000 C   0  0  0  0  0  0  0  0  0  0  0  0
    1.3767    0.0211    0.0000 N   0  0  0  0  0  0  0  0  0  0  0  0
    2.6154   -0.8249    0.0000 C   0  0  0  0  0  0  0  0  0  0  0  0
    2.5021   -2.3206    0.0000 O   0  0  0  0  0  0  0  0  0  0  0  0
    3.9674   -0.1751    0.0000 C   0  0  0  0  0  0  0  0  0  0  0  0
    4.0807    1.3206    0.0000 C   0  0  0  0  0  0  0  0  0  0  0  0
    5.4326    1.9703    0.0000 C   0  0  0  0  0  0  0  0  0  0  0  0
    6.6713    1.1244    0.0000 C   0  0  0  0  0  0  0  0  0  0  0  0
    6.5580   -0.3713    0.0000 C   0  0  0  0  0  0  0  0  0  0  0  0
    5.2061   -1.0211    0.0000 C   0  0  0  0  0  0  0  0  0  0  0  0
   -6.3952    0.6097    0.0000 C   0  0  0  0  0  0  0  0  0  0  0  0
   -6.2820    2.1054    0.0000 O   0  0  0  0  0  0  0  0  0  0  0  0
   -7.7472   -0.0400    0.0000 O   0  0  0  0  0  0  0  0  0  0  0  0
  2  1  1  6
  2  3  1  0
  3  4  1  0
  4  5  1  0
  5  6  1  0
  6  7  1  0
  7  8  1  0
  8  9  2  0
  8 10  1  0
 10 11  2  0
 11 12  1  0
 12 13  2  0
 13 14  1  0
 14 15  2  0
  2 16  1  0
 16 17  2  0
 16 18  1  0
 15 10  1  0
M  END
>  <rName>  (468) 
Lys_Bz

>  <PQ_SYMBOL>  (468) 
Lys_Bz

>  <FULL_NAME>  (468) 
N-Epsilon-Benzoyl-L-Lysine

>  <IUPAC_CONDENSED>  (468) 
Lys(Bz)

>  <IUPAC>  (468) 
(2S)-2-amino-6-phenylcarbonylaminohexanoic acid

>  <TYPE>  (468) 
Backbone

>  <CLASS>  (468) 
alpha

>  <ANALOG>  (468) 
Lys

>  <MOL_WT>  (468) 
250.29800000000003

>  <LOGP>  (468) 
0.9985999999999993

>  <TPSA>  (468) 
92.42

>  <POPULARITY>  (468) 
17.2

>  <PROTECTED>  (468) 
TRUE

>  <SMILES>  (468) 
N[C@@H](CCCCNC(=O)c1(ccccc1))C(=O)O

>  <INCHIKEY>  (468) 
KODLJWKGAKBGOB-NSHDSACASA-N

$$$$
Phg
     RDKit          2D

 11 11  0  0  0  0  0  0  0  0999 V2000
   -1.6031   -2.0851    0.0000 N   0  0  0  0  0  0  0  0  0  0  0  0
   -1.1770   -0.6469    0.0000 C   0  0  0  0  0  0  0  0  0  0  0  0
    0.2816   -0.2968    0.0000 C   0  0  0  0  0  0  0  0  0  0  0  0
    0.7077    1.1415    0.0000 C   0  0  0  0  0  0  0  0  0  0  0  0
    2.1662    1.4916    0.0000 C   0  0  0  0  0  0  0  0  0  0  0  0
    3.1987    0.4035    0.0000 C   0  0  0  0  0  0  0  0  0  0  0  0
    2.7726   -1.0347    0.0000 C   0  0  0  0  0  0  0  0  0  0  0  0
    1.3141   -1.3849    0.0000 C   0  0  0  0  0  0  0  0  0  0  0  0
   -2.2095    0.4412    0.0000 C   0  0  0  0  0  0  0  0  0  0  0  0
   -1.7834    1.8794    0.0000 O   0  0  0  0  0  0  0  0  0  0  0  0
   -3.6680    0.0911    0.0000 O   0  0  0  0  0  0  0  0  0  0  0  0
  2  1  1  6
  2  3  1  0
  3  4  2  0
  4  5  1  0
  5  6  2  0
  6  7  1  0
  7  8  2  0
  2  9  1  0
  9 10  2  0
  9 11  1  0
  8  3  1  0
M  END
>  <rName>  (469) 
Phg

>  <PQ_SYMBOL>  (469) 
Phg

>  <FULL_NAME>  (469) 
L-Phenylglycine

>  <IUPAC_CONDENSED>  (469) 
Phg

>  <IUPAC>  (469) 
(2S)-2-amino-2-phenylacetic acid

>  <TYPE>  (469) 
Backbone

>  <CLASS>  (469) 
alpha

>  <ANALOG>  (469) 
X

>  <MOL_WT>  (469) 
151.16499999999996

>  <LOGP>  (469) 
0.7710000000000001

>  <TPSA>  (469) 
63.32000000000001

>  <POPULARITY>  (469) 
41.6

>  <PROTECTED>  (469) 
TRUE

>  <SMILES>  (469) 
N[C@@H](c1(ccccc1))C(=O)O

>  <INCHIKEY>  (469) 
ZGUNAGUHMKGQNY-ZETCQYMHSA-N

$$$$
Phg_3OMe
     RDKit          2D

 13 13  0  0  0  0  0  0  0  0999 V2000
   -1.4877   -2.2692    0.0000 N   0  0  0  0  0  0  0  0  0  0  0  0
   -1.5624   -0.7710    0.0000 C   0  0  0  0  0  0  0  0  0  0  0  0
   -0.3023    0.0427    0.0000 C   0  0  0  0  0  0  0  0  0  0  0  0
   -0.3769    1.5408    0.0000 C   0  0  0  0  0  0  0  0  0  0  0  0
    0.8832    2.3546    0.0000 C   0  0  0  0  0  0  0  0  0  0  0  0
    2.2179    1.6702    0.0000 C   0  0  0  0  0  0  0  0  0  0  0  0
    2.2926    0.1720    0.0000 C   0  0  0  0  0  0  0  0  0  0  0  0
    3.6273   -0.5124    0.0000 O   0  0  0  0  0  0  0  0  0  0  0  0
    3.7020   -2.0105    0.0000 C   0  0  0  0  0  0  0  0  0  0  0  0
    1.0325   -0.6417    0.0000 C   0  0  0  0  0  0  0  0  0  0  0  0
   -2.8971   -0.0866    0.0000 C   0  0  0  0  0  0  0  0  0  0  0  0
   -2.9718    1.4115    0.0000 O   0  0  0  0  0  0  0  0  0  0  0  0
   -4.1572   -0.9004    0.0000 O   0  0  0  0  0  0  0  0  0  0  0  0
  2  1  1  6
  2  3  1  0
  3  4  2  0
  4  5  1  0
  5  6  2  0
  6  7  1  0
  7  8  1  0
  8  9  1  0
  7 10  2  0
  2 11  1  0
 11 12  2  0
 11 13  1  0
 10  3  1  0
M  END
>  <rName>  (470) 
Phg_3OMe

>  <PQ_SYMBOL>  (470) 
Phg_3OMe

>  <FULL_NAME>  (470) 
3-Methoxy-L-Phenylglycine

>  <IUPAC_CONDENSED>  (470) 
Phg(3-OMe)

>  <IUPAC>  (470) 
(2S)-2-amino-2-(3-methoxyphenyl)acetic acid

>  <TYPE>  (470) 
Backbone

>  <CLASS>  (470) 
alpha

>  <ANALOG>  (470) 
X

>  <MOL_WT>  (470) 
181.19099999999997

>  <LOGP>  (470) 
0.7796000000000001

>  <TPSA>  (470) 
72.55

>  <POPULARITY>  (470) 
6.4

>  <PROTECTED>  (470) 
TRUE

>  <SMILES>  (470) 
N[C@@H](c1(cccc(OC)c1))C(=O)O

>  <INCHIKEY>  (470) 
UMKVNPOZWRHJPM-QMMMGPOBSA-N

$$$$
Gly_allyl
     RDKit          2D

  8  7  0  0  0  0  0  0  0  0999 V2000
   -0.2517   -1.8862    0.0000 N   0  0  0  0  0  0  0  0  0  0  0  0
   -0.3100   -0.3873    0.0000 C   0  0  0  0  0  0  0  0  0  0  0  0
    0.9590    0.4126    0.0000 C   0  0  0  0  0  0  0  0  0  0  0  0
    2.2862   -0.2864    0.0000 C   0  0  0  0  0  0  0  0  0  0  0  0
    3.5551    0.5134    0.0000 C   0  0  0  0  0  0  0  0  0  0  0  0
   -1.6371    0.3117    0.0000 C   0  0  0  0  0  0  0  0  0  0  0  0
   -1.6954    1.8105    0.0000 O   0  0  0  0  0  0  0  0  0  0  0  0
   -2.9061   -0.4882    0.0000 O   0  0  0  0  0  0  0  0  0  0  0  0
  2  1  1  6
  2  3  1  0
  3  4  1  0
  4  5  2  0
  2  6  1  0
  6  7  2  0
  6  8  1  0
M  END
>  <rName>  (471) 
Gly_allyl

>  <PQ_SYMBOL>  (471) 
Gly_allyl

>  <FULL_NAME>  (471) 
L-Allylglycine

>  <IUPAC_CONDENSED>  (471) 
Gly(allyl)

>  <IUPAC>  (471) 
(2S)-2-aminopent-4-enoic acid

>  <TYPE>  (471) 
Backbone

>  <CLASS>  (471) 
alpha

>  <ANALOG>  (471) 
Val

>  <MOL_WT>  (471) 
115.13199999999999

>  <LOGP>  (471) 
-0.025600000000000345

>  <TPSA>  (471) 
63.32000000000001

>  <POPULARITY>  (471) 
26.3

>  <PROTECTED>  (471) 
TRUE

>  <SMILES>  (471) 
N[C@@H](CC=C)C(=O)O

>  <INCHIKEY>  (471) 
WNNNWFKQCKFSDK-BYPYZUCNSA-N

$$$$
Phe_3CN
     RDKit          2D

 14 14  0  0  0  0  0  0  0  0999 V2000
   -2.3578    1.5845    0.0000 N   0  0  0  0  0  0  0  0  0  0  0  0
   -2.4110    0.0855    0.0000 C   0  0  0  0  0  0  0  0  0  0  0  0
   -1.1393   -0.7101    0.0000 C   0  0  0  0  0  0  0  0  0  0  0  0
    0.1855   -0.0066    0.0000 C   0  0  0  0  0  0  0  0  0  0  0  0
    0.2386    1.4925    0.0000 C   0  0  0  0  0  0  0  0  0  0  0  0
    1.5634    2.1960    0.0000 C   0  0  0  0  0  0  0  0  0  0  0  0
    2.8351    1.4004    0.0000 C   0  0  0  0  0  0  0  0  0  0  0  0
    2.7819   -0.0986    0.0000 C   0  0  0  0  0  0  0  0  0  0  0  0
    4.0535   -0.8942    0.0000 C   0  0  0  0  0  0  0  0  0  0  0  0
    5.3252   -1.6898    0.0000 N   0  0  0  0  0  0  0  0  0  0  0  0
    1.4571   -0.8021    0.0000 C   0  0  0  0  0  0  0  0  0  0  0  0
   -3.7358   -0.6180    0.0000 C   0  0  0  0  0  0  0  0  0  0  0  0
   -3.7889   -2.1171    0.0000 O   0  0  0  0  0  0  0  0  0  0  0  0
   -5.0074    0.1776    0.0000 O   0  0  0  0  0  0  0  0  0  0  0  0
  2  1  1  1
  2  3  1  0
  3  4  1  0
  4  5  2  0
  5  6  1  0
  6  7  2  0
  7  8  1  0
  8  9  1  0
  9 10  3  0
  8 11  2  0
  2 12  1  0
 12 13  2  0
 12 14  1  0
 11  4  1  0
M  END
>  <rName>  (472) 
Phe_3CN

>  <PQ_SYMBOL>  (472) 
Phe_3CN

>  <FULL_NAME>  (472) 
3-Cyano-L-Phenylalanine

>  <IUPAC_CONDENSED>  (472) 
Phe(3-CN)

>  <IUPAC>  (472) 
(2S)-2-amino-3-(3-(nitrilomethyl)phenyl)propanoic acid

>  <TYPE>  (472) 
Backbone

>  <CLASS>  (472) 
alpha

>  <ANALOG>  (472) 
Phe

>  <MOL_WT>  (472) 
190.20199999999997

>  <LOGP>  (472) 
0.5126800000000002

>  <TPSA>  (472) 
87.11

>  <POPULARITY>  (472) 
14.6

>  <PROTECTED>  (472) 
TRUE

>  <SMILES>  (472) 
N[C@@H](Cc1(cccc(C#N)c1))C(=O)O

>  <INCHIKEY>  (472) 
ZHUOMTMPTNZOJE-VIFPVBQESA-N

$$$$
Phg_3OH
     RDKit          2D

 12 12  0  0  0  0  0  0  0  0999 V2000
   -1.5885   -2.1920    0.0000 N   0  0  0  0  0  0  0  0  0  0  0  0
   -1.3991   -0.7040    0.0000 C   0  0  0  0  0  0  0  0  0  0  0  0
   -0.0158   -0.1240    0.0000 C   0  0  0  0  0  0  0  0  0  0  0  0
    0.1736    1.3640    0.0000 C   0  0  0  0  0  0  0  0  0  0  0  0
    1.5569    1.9440    0.0000 C   0  0  0  0  0  0  0  0  0  0  0  0
    2.7509    1.0360    0.0000 C   0  0  0  0  0  0  0  0  0  0  0  0
    2.5615   -0.4520    0.0000 C   0  0  0  0  0  0  0  0  0  0  0  0
    3.7555   -1.3600    0.0000 O   0  0  0  0  0  0  0  0  0  0  0  0
    1.1782   -1.0320    0.0000 C   0  0  0  0  0  0  0  0  0  0  0  0
   -2.5931    0.2040    0.0000 C   0  0  0  0  0  0  0  0  0  0  0  0
   -2.4037    1.6920    0.0000 O   0  0  0  0  0  0  0  0  0  0  0  0
   -3.9764   -0.3760    0.0000 O   0  0  0  0  0  0  0  0  0  0  0  0
  2  1  1  6
  2  3  1  0
  3  4  2  0
  4  5  1  0
  5  6  2  0
  6  7  1  0
  7  8  1  0
  7  9  2  0
  2 10  1  0
 10 11  2  0
 10 12  1  0
  9  3  1  0
M  END
>  <rName>  (473) 
Phg_3OH

>  <PQ_SYMBOL>  (473) 
Phg_3OH

>  <FULL_NAME>  (473) 
(S)-3-Hydroxyphenylglycine

>  <IUPAC_CONDENSED>  (473) 
Phg(3-OH)

>  <IUPAC>  (473) 
(2S)-2-amino-2-(3-hydroxyphenyl)acetic acid

>  <TYPE>  (473) 
Backbone

>  <CLASS>  (473) 
alpha

>  <ANALOG>  (473) 
X

>  <MOL_WT>  (473) 
167.16399999999996

>  <LOGP>  (473) 
0.4766

>  <TPSA>  (473) 
83.55

>  <POPULARITY>  (473) 
7.5

>  <PROTECTED>  (473) 
TRUE

>  <SMILES>  (473) 
N[C@@H](c1(cccc(O)c1))C(=O)O

>  <INCHIKEY>  (473) 
DQLYTFPAEVJTFM-ZETCQYMHSA-N

$$$$
Phe_4CN
     RDKit          2D

 14 14  0  0  0  0  0  0  0  0999 V2000
   -1.9640    1.7008    0.0000 N   0  0  0  0  0  0  0  0  0  0  0  0
   -2.4550    0.2835    0.0000 C   0  0  0  0  0  0  0  0  0  0  0  0
   -1.4730   -0.8504    0.0000 C   0  0  0  0  0  0  0  0  0  0  0  0
   -0.0000   -0.5669    0.0000 C   0  0  0  0  0  0  0  0  0  0  0  0
    0.4910    0.8504    0.0000 C   0  0  0  0  0  0  0  0  0  0  0  0
    1.9640    1.1339    0.0000 C   0  0  0  0  0  0  0  0  0  0  0  0
    2.9459    0.0000    0.0000 C   0  0  0  0  0  0  0  0  0  0  0  0
    4.4189    0.2835    0.0000 C   0  0  0  0  0  0  0  0  0  0  0  0
    5.8919    0.5669    0.0000 N   0  0  0  0  0  0  0  0  0  0  0  0
    2.4550   -1.4174    0.0000 C   0  0  0  0  0  0  0  0  0  0  0  0
    0.9820   -1.7008    0.0000 C   0  0  0  0  0  0  0  0  0  0  0  0
   -3.9279   -0.0000    0.0000 C   0  0  0  0  0  0  0  0  0  0  0  0
   -4.4189   -1.4174    0.0000 O   0  0  0  0  0  0  0  0  0  0  0  0
   -4.9099    1.1339    0.0000 O   0  0  0  0  0  0  0  0  0  0  0  0
  2  1  1  1
  2  3  1  0
  3  4  1  0
  4  5  1  0
  5  6  2  0
  6  7  1  0
  7  8  1  0
  8  9  3  0
  7 10  2  0
 10 11  1  0
  2 12  1  0
 12 13  2  0
 12 14  1  0
 11  4  2  0
M  END
>  <rName>  (474) 
Phe_4CN

>  <PQ_SYMBOL>  (474) 
Phe_4CN

>  <FULL_NAME>  (474) 
4-Cyano-L-Phenylalanine

>  <IUPAC_CONDENSED>  (474) 
Phe(4-CN)

>  <IUPAC>  (474) 
(2S)-2-amino-3-(4-(nitrilomethyl)phenyl)propanoic acid

>  <TYPE>  (474) 
Backbone

>  <CLASS>  (474) 
alpha

>  <ANALOG>  (474) 
Phe

>  <MOL_WT>  (474) 
190.202

>  <LOGP>  (474) 
0.5126800000000002

>  <TPSA>  (474) 
87.11

>  <POPULARITY>  (474) 
26.1

>  <PROTECTED>  (474) 
TRUE

>  <SMILES>  (474) 
N[C@@H](Cc1(ccc(C#N)cc1))C(=O)O

>  <INCHIKEY>  (474) 
KWIPUXXIFQQMKN-VIFPVBQESA-N

$$$$
hTyr
     RDKit          2D

 14 14  0  0  0  0  0  0  0  0999 V2000
   -3.1731   -1.8740    0.0000 N   0  0  0  0  0  0  0  0  0  0  0  0
   -2.8476   -0.4097    0.0000 C   0  0  0  0  0  0  0  0  0  0  0  0
   -1.4168    0.0405    0.0000 C   0  0  0  0  0  0  0  0  0  0  0  0
   -0.3114   -0.9735    0.0000 C   0  0  0  0  0  0  0  0  0  0  0  0
    1.1194   -0.5232    0.0000 C   0  0  0  0  0  0  0  0  0  0  0  0
    1.4449    0.9411    0.0000 C   0  0  0  0  0  0  0  0  0  0  0  0
    2.8757    1.3913    0.0000 C   0  0  0  0  0  0  0  0  0  0  0  0
    3.9810    0.3773    0.0000 C   0  0  0  0  0  0  0  0  0  0  0  0
    5.4119    0.8276    0.0000 O   0  0  0  0  0  0  0  0  0  0  0  0
    3.6556   -1.0870    0.0000 C   0  0  0  0  0  0  0  0  0  0  0  0
    2.2247   -1.5372    0.0000 C   0  0  0  0  0  0  0  0  0  0  0  0
   -3.9530    0.6043    0.0000 C   0  0  0  0  0  0  0  0  0  0  0  0
   -3.6275    2.0685    0.0000 O   0  0  0  0  0  0  0  0  0  0  0  0
   -5.3838    0.1540    0.0000 O   0  0  0  0  0  0  0  0  0  0  0  0
  2  1  1  6
  2  3  1  0
  3  4  1  0
  4  5  1  0
  5  6  1  0
  6  7  2  0
  7  8  1  0
  8  9  1  0
  8 10  2  0
 10 11  1  0
  2 12  1  0
 12 13  2  0
 12 14  1  0
 11  5  2  0
M  END
>  <rName>  (475) 
hTyr

>  <PQ_SYMBOL>  (475) 
hTyr

>  <FULL_NAME>  (475) 
Homo-L-Tyrosine

>  <IUPAC_CONDENSED>  (475) 
hTyr

>  <IUPAC>  (475) 
(2S)-2-amino-4-(4-hydroxyphenyl)butanoic acid

>  <TYPE>  (475) 
Backbone

>  <CLASS>  (475) 
alpha

>  <ANALOG>  (475) 
Tyr

>  <MOL_WT>  (475) 
195.218

>  <LOGP>  (475) 
0.7366999999999999

>  <TPSA>  (475) 
83.55

>  <POPULARITY>  (475) 
22.8

>  <PROTECTED>  (475) 
TRUE

>  <SMILES>  (475) 
N[C@@H](CCc1(ccc(O)cc1))C(=O)O

>  <INCHIKEY>  (475) 
LOOZZTFGSTZNRX-VIFPVBQESA-N

$$$$
Nva_OH
     RDKit          2D

  9  8  0  0  0  0  0  0  0  0999 V2000
   -0.7616    1.8791    0.0000 N   0  0  0  0  0  0  0  0  0  0  0  0
   -0.8459    0.3815    0.0000 C   0  0  0  0  0  0  0  0  0  0  0  0
    0.4089   -0.4403    0.0000 C   0  0  0  0  0  0  0  0  0  0  0  0
    1.7480    0.2354    0.0000 C   0  0  0  0  0  0  0  0  0  0  0  0
    3.0029   -0.5864    0.0000 C   0  0  0  0  0  0  0  0  0  0  0  0
    4.3420    0.0894    0.0000 O   0  0  0  0  0  0  0  0  0  0  0  0
   -2.1851   -0.2943    0.0000 C   0  0  0  0  0  0  0  0  0  0  0  0
   -2.2694   -1.7919    0.0000 O   0  0  0  0  0  0  0  0  0  0  0  0
   -3.4399    0.5275    0.0000 O   0  0  0  0  0  0  0  0  0  0  0  0
  2  1  1  1
  2  3  1  0
  3  4  1  0
  4  5  1  0
  5  6  1  0
  2  7  1  0
  7  8  2  0
  7  9  1  0
M  END
>  <rName>  (476) 
Nva_OH

>  <PQ_SYMBOL>  (476) 
Nva_OH

>  <FULL_NAME>  (476) 
Pentahomo-L-Serine

>  <IUPAC_CONDENSED>  (476) 
Nva(OH)

>  <IUPAC>  (476) 
(2S)-2-amino-5-hydroxypentanoic acid

>  <TYPE>  (476) 
Backbone

>  <CLASS>  (476) 
alpha

>  <ANALOG>  (476) 
X

>  <MOL_WT>  (476) 
133.147

>  <LOGP>  (476) 
-0.8292000000000004

>  <TPSA>  (476) 
83.55

>  <POPULARITY>  (476) 
19.5

>  <PROTECTED>  (476) 
TRUE

>  <SMILES>  (476) 
N[C@@H](CCCO)C(=O)O

>  <INCHIKEY>  (476) 
CZWARROQQFCFJB-BYPYZUCNSA-N

$$$$
Abu
     RDKit          2D

  7  6  0  0  0  0  0  0  0  0999 V2000
   -0.5797   -1.7367    0.0000 N   0  0  0  0  0  0  0  0  0  0  0  0
   -0.2514   -0.2730    0.0000 C   0  0  0  0  0  0  0  0  0  0  0  0
   -1.3548    0.7431    0.0000 C   0  0  0  0  0  0  0  0  0  0  0  0
   -2.7865    0.2956    0.0000 C   0  0  0  0  0  0  0  0  0  0  0  0
    1.1803    0.1745    0.0000 C   0  0  0  0  0  0  0  0  0  0  0  0
    1.5086    1.6381    0.0000 O   0  0  0  0  0  0  0  0  0  0  0  0
    2.2837   -0.8417    0.0000 O   0  0  0  0  0  0  0  0  0  0  0  0
  2  1  1  1
  2  3  1  0
  3  4  1  0
  2  5  1  0
  5  6  2  0
  5  7  1  0
M  END
>  <rName>  (477) 
Abu

>  <PQ_SYMBOL>  (477) 
Abu

>  <FULL_NAME>  (477) 
L-2-Aminobutyric acid

>  <IUPAC_CONDENSED>  (477) 
Abu

>  <IUPAC>  (477) 
(2S)-2-aminobutanoic acid

>  <TYPE>  (477) 
Backbone

>  <CLASS>  (477) 
alpha

>  <ANALOG>  (477) 
Ala

>  <MOL_WT>  (477) 
103.12099999999998

>  <LOGP>  (477) 
-0.19170000000000004

>  <TPSA>  (477) 
63.32000000000001

>  <POPULARITY>  (477) 
68.3

>  <PROTECTED>  (477) 
TRUE

>  <SMILES>  (477) 
N[C@@H](CC)C(=O)O

>  <INCHIKEY>  (477) 
QWCKQJZIFLGMSD-VKHMYHEASA-N

$$$$
Nle_Me
     RDKit          2D

 10  9  0  0  0  0  0  0  0  0999 V2000
   -1.4166   -1.8843    0.0000 N   0  0  0  0  0  0  0  0  0  0  0  0
   -1.4265   -0.3844    0.0000 C   0  0  0  0  0  0  0  0  0  0  0  0
   -0.1324    0.3741    0.0000 C   0  0  0  0  0  0  0  0  0  0  0  0
    1.1716   -0.3673    0.0000 C   0  0  0  0  0  0  0  0  0  0  0  0
    2.4657    0.3912    0.0000 C   0  0  0  0  0  0  0  0  0  0  0  0
    3.7696   -0.3503    0.0000 C   0  0  0  0  0  0  0  0  0  0  0  0
    5.0637    0.4082    0.0000 C   0  0  0  0  0  0  0  0  0  0  0  0
   -2.7304    0.3571    0.0000 C   0  0  0  0  0  0  0  0  0  0  0  0
   -2.7402    1.8571    0.0000 O   0  0  0  0  0  0  0  0  0  0  0  0
   -4.0245   -0.4014    0.0000 O   0  0  0  0  0  0  0  0  0  0  0  0
  2  1  1  6
  2  3  1  0
  3  4  1  0
  4  5  1  0
  5  6  1  0
  6  7  1  0
  2  8  1  0
  8  9  2  0
  8 10  1  0
M  END
>  <rName>  (478) 
Nle_Me

>  <PQ_SYMBOL>  (478) 
Nle_Me

>  <FULL_NAME>  (478) 
(2S)-2-Aminoheptanoic acid

>  <IUPAC_CONDENSED>  (478) 
Nle(Me)

>  <IUPAC>  (478) 
(2S)-2-aminoheptanoic acid

>  <TYPE>  (478) 
Backbone

>  <CLASS>  (478) 
alpha

>  <ANALOG>  (478) 
Leu

>  <MOL_WT>  (478) 
145.202

>  <LOGP>  (478) 
0.9785999999999997

>  <TPSA>  (478) 
63.32000000000001

>  <POPULARITY>  (478) 
29.5

>  <PROTECTED>  (478) 
TRUE

>  <SMILES>  (478) 
N[C@@H](CCCCC)C(=O)O

>  <INCHIKEY>  (478) 
RDFMDVXONNIGBC-LURJTMIESA-N

$$$$
Cha
     RDKit          2D

 12 12  0  0  0  0  0  0  0  0999 V2000
   -1.2391    1.6805    0.0000 N   0  0  0  0  0  0  0  0  0  0  0  0
   -1.6184    0.2292    0.0000 C   0  0  0  0  0  0  0  0  0  0  0  0
   -0.5513   -0.8249    0.0000 C   0  0  0  0  0  0  0  0  0  0  0  0
    0.8952   -0.4278    0.0000 C   0  0  0  0  0  0  0  0  0  0  0  0
    1.2745    1.0235    0.0000 C   0  0  0  0  0  0  0  0  0  0  0  0
    2.7210    1.4206    0.0000 C   0  0  0  0  0  0  0  0  0  0  0  0
    3.7882    0.3665    0.0000 C   0  0  0  0  0  0  0  0  0  0  0  0
    3.4088   -1.0848    0.0000 C   0  0  0  0  0  0  0  0  0  0  0  0
    1.9624   -1.4819    0.0000 C   0  0  0  0  0  0  0  0  0  0  0  0
   -3.0649   -0.1679    0.0000 C   0  0  0  0  0  0  0  0  0  0  0  0
   -3.4442   -1.6191    0.0000 O   0  0  0  0  0  0  0  0  0  0  0  0
   -4.1321    0.8862    0.0000 O   0  0  0  0  0  0  0  0  0  0  0  0
  2  1  1  1
  2  3  1  0
  3  4  1  0
  4  5  1  0
  5  6  1  0
  6  7  1  0
  7  8  1  0
  8  9  1  0
  2 10  1  0
 10 11  2  0
 10 12  1  0
  9  4  1  0
M  END
>  <rName>  (479) 
Cha

>  <PQ_SYMBOL>  (479) 
Cha

>  <FULL_NAME>  (479) 
3-Cyclohexyl-L-Alanine

>  <IUPAC_CONDENSED>  (479) 
Cha

>  <IUPAC>  (479) 
(2S)-2-amino-3-cyclohexylpropanoic acid

>  <TYPE>  (479) 
Backbone

>  <CLASS>  (479) 
alpha

>  <ANALOG>  (479) 
Ala

>  <MOL_WT>  (479) 
171.24

>  <LOGP>  (479) 
1.3687

>  <TPSA>  (479) 
63.32000000000001

>  <POPULARITY>  (479) 
48

>  <PROTECTED>  (479) 
TRUE

>  <SMILES>  (479) 
N[C@@H](CC1(CCCCC1))C(=O)O

>  <INCHIKEY>  (479) 
ORQXBVXKBGUSBA-QMMMGPOBSA-N

$$$$
aThr
     RDKit          2D

  8  7  0  0  0  0  0  0  0  0999 V2000
    0.0000   -2.0625    0.0000 N   0  0  0  0  0  0  0  0  0  0  0  0
    0.0000   -0.5625    0.0000 C   0  0  0  0  0  0  0  0  0  0  0  0
   -1.2990    0.1875    0.0000 C   0  0  0  0  0  0  0  0  0  0  0  0
   -1.2990    1.6875    0.0000 O   0  0  0  0  0  0  0  0  0  0  0  0
   -2.5981   -0.5625    0.0000 C   0  0  0  0  0  0  0  0  0  0  0  0
    1.2990    0.1875    0.0000 C   0  0  0  0  0  0  0  0  0  0  0  0
    1.2990    1.6875    0.0000 O   0  0  0  0  0  0  0  0  0  0  0  0
    2.5981   -0.5625    0.0000 O   0  0  0  0  0  0  0  0  0  0  0  0
  2  1  1  1
  2  3  1  0
  3  4  1  0
  3  5  1  6
  2  6  1  0
  6  7  2  0
  6  8  1  0
M  END
>  <rName>  (480) 
aThr

>  <PQ_SYMBOL>  (480) 
aThr

>  <FULL_NAME>  (480) 
Allo-L-Threonine, (2S,3S)-Allothreonine

>  <IUPAC_CONDENSED>  (480) 
aThr

>  <IUPAC>  (480) 
(2S,3S)-2-amino-3-hydroxybutanoic acid

>  <TYPE>  (480) 
Backbone

>  <CLASS>  (480) 
alpha

>  <ANALOG>  (480) 
Thr

>  <MOL_WT>  (480) 
119.11999999999999

>  <LOGP>  (480) 
-1.2209

>  <TPSA>  (480) 
83.55

>  <POPULARITY>  (480) 
42.2

>  <PROTECTED>  (480) 
TRUE

>  <SMILES>  (480) 
N[C@@H]([C@@H](O)C)C(=O)O

>  <INCHIKEY>  (480) 
AYFVYJQAPQTCCC-HRFVKAFMSA-N

$$$$
Ala_naphth1yl
     RDKit          2D

 20 22  0  0  0  0  0  0  0  0999 V2000
   -2.7056    0.5283    0.0000 N   0  0  0  0  0  0  0  0  0  0  0  0
   -2.3890   -0.9379    0.0000 C   0  0  0  0  0  0  0  0  0  0  0  0
   -0.9609   -1.3968    0.0000 C   0  0  0  0  0  0  0  0  0  0  0  0
    0.1506   -0.3895    0.0000 C   0  0  0  0  0  0  0  0  0  0  0  0
    1.5787   -0.8484    0.0000 C   0  0  0  0  0  0  0  0  0  0  0  0
    1.8953   -2.3146    0.0000 C   0  0  0  0  0  0  0  0  0  0  0  0
    3.3234   -2.7734    0.0000 C   0  0  0  0  0  0  0  0  0  0  0  0
    4.4348   -1.7661    0.0000 C   0  0  0  0  0  0  0  0  0  0  0  0
    4.1182   -0.2999    0.0000 C   0  0  0  0  0  0  0  0  0  0  0  0
    2.6901    0.1590    0.0000 C   0  0  0  0  0  0  0  0  0  0  0  0
    2.3734    1.6252    0.0000 C   0  0  0  0  0  0  0  0  0  0  0  0
    0.9454    2.0840    0.0000 C   0  0  0  0  0  0  0  0  0  0  0  0
    0.6287    3.5502    0.0000 C   0  0  0  0  0  0  0  0  0  0  0  0
   -0.7994    4.0091    0.0000 C   0  0  0  0  0  0  0  0  0  0  0  0
   -1.9108    3.0018    0.0000 C   0  0  0  0  0  0  0  0  0  0  0  0
   -1.5942    1.5356    0.0000 C   0  0  0  0  0  0  0  0  0  0  0  0
   -0.1661    1.0767    0.0000 C   0  0  0  0  0  0  0  0  0  0  0  0
   -3.5004   -1.9453    0.0000 C   0  0  0  0  0  0  0  0  0  0  0  0
   -3.1838   -3.4115    0.0000 O   0  0  0  0  0  0  0  0  0  0  0  0
   -4.9285   -1.4864    0.0000 O   0  0  0  0  0  0  0  0  0  0  0  0
  2  1  1  1
  2  3  1  0
  3  4  1  0
  4  5  1  0
  5  6  2  0
  6  7  1  0
  7  8  2  0
  8  9  1  0
  9 10  2  0
 10 11  1  0
 11 12  2  0
 12 13  1  0
 13 14  2  0
 14 15  1  0
 15 16  2  0
 16 17  1  0
  2 18  1  0
 18 19  2  0
 18 20  1  0
 10  5  1  0
 17 12  1  0
 17  4  2  0
M  END
>  <rName>  (481) 
Ala_naphth1yl

>  <PQ_SYMBOL>  (481) 
Ala_naphth1yl

>  <FULL_NAME>  (481) 
3-(9-anthryl)l-L-Alanine

>  <IUPAC_CONDENSED>  (481) 
Ala(naphth-1-yl)

>  <IUPAC>  (481) 
(2S)-2-amino-3-(anthracen-9-yl)propanoic acid

>  <TYPE>  (481) 
Backbone

>  <CLASS>  (481) 
alpha

>  <ANALOG>  (481) 
Phe

>  <MOL_WT>  (481) 
265.31199999999995

>  <LOGP>  (481) 
2.947400000000001

>  <TPSA>  (481) 
63.32000000000001

>  <POPULARITY>  (481) 
5.3

>  <PROTECTED>  (481) 
TRUE

>  <SMILES>  (481) 
N[C@@H](Cc3(c1(ccccc1cc2(ccccc23))))C(=O)O

>  <INCHIKEY>  (481) 
MRVJUNXMEDRMRO-INIZCTEOSA-N

$$$$
Phe_3Me
     RDKit          2D

 13 13  0  0  0  0  0  0  0  0999 V2000
   -1.7680    1.6690    0.0000 N   0  0  0  0  0  0  0  0  0  0  0  0
   -1.9932    0.1860    0.0000 C   0  0  0  0  0  0  0  0  0  0  0  0
   -0.8215   -0.7506    0.0000 C   0  0  0  0  0  0  0  0  0  0  0  0
    0.5754   -0.2041    0.0000 C   0  0  0  0  0  0  0  0  0  0  0  0
    0.8006    1.2789    0.0000 C   0  0  0  0  0  0  0  0  0  0  0  0
    2.1976    1.8254    0.0000 C   0  0  0  0  0  0  0  0  0  0  0  0
    3.3693    0.8888    0.0000 C   0  0  0  0  0  0  0  0  0  0  0  0
    3.1441   -0.5942    0.0000 C   0  0  0  0  0  0  0  0  0  0  0  0
    4.3158   -1.5307    0.0000 C   0  0  0  0  0  0  0  0  0  0  0  0
    1.7472   -1.1406    0.0000 C   0  0  0  0  0  0  0  0  0  0  0  0
   -3.3901   -0.3605    0.0000 C   0  0  0  0  0  0  0  0  0  0  0  0
   -3.6153   -1.8435    0.0000 O   0  0  0  0  0  0  0  0  0  0  0  0
   -4.5618    0.5760    0.0000 O   0  0  0  0  0  0  0  0  0  0  0  0
  2  1  1  1
  2  3  1  0
  3  4  1  0
  4  5  2  0
  5  6  1  0
  6  7  2  0
  7  8  1  0
  8  9  1  0
  8 10  2  0
  2 11  1  0
 11 12  2  0
 11 13  1  0
 10  4  1  0
M  END
>  <rName>  (482) 
Phe_3Me

>  <PQ_SYMBOL>  (482) 
Phe_3Me

>  <FULL_NAME>  (482) 
3-Methyl-L-Phenylalanine

>  <IUPAC_CONDENSED>  (482) 
Phe(3-Me)

>  <IUPAC>  (482) 
(2S)-2-amino-3-(3-methylphenyl)propanoic acid

>  <TYPE>  (482) 
Backbone

>  <CLASS>  (482) 
alpha

>  <ANALOG>  (482) 
Phe

>  <MOL_WT>  (482) 
179.21899999999997

>  <LOGP>  (482) 
0.9494199999999999

>  <TPSA>  (482) 
63.32000000000001

>  <POPULARITY>  (482) 
14.4

>  <PROTECTED>  (482) 
TRUE

>  <SMILES>  (482) 
N[C@@H](Cc1(cccc(C)c1))C(=O)O

>  <INCHIKEY>  (482) 
JZRBSTONIYRNRI-VIFPVBQESA-N

$$$$
Gly_CO2H
     RDKit          2D

  8  7  0  0  0  0  0  0  0  0999 V2000
   -0.0000   -2.0625    0.0000 N   0  0  0  0  0  0  0  0  0  0  0  0
   -0.0000   -0.5625    0.0000 C   0  0  0  0  0  0  0  0  0  0  0  0
    1.2990    0.1875    0.0000 C   0  0  0  0  0  0  0  0  0  0  0  0
    1.2990    1.6875    0.0000 O   0  0  0  0  0  0  0  0  0  0  0  0
    2.5981   -0.5625    0.0000 O   0  0  0  0  0  0  0  0  0  0  0  0
   -1.2990    0.1875    0.0000 C   0  0  0  0  0  0  0  0  0  0  0  0
   -1.2990    1.6875    0.0000 O   0  0  0  0  0  0  0  0  0  0  0  0
   -2.5981   -0.5625    0.0000 O   0  0  0  0  0  0  0  0  0  0  0  0
  1  2  1  0
  2  3  1  0
  3  4  2  0
  3  5  1  0
  2  6  1  0
  6  7  2  0
  6  8  1  0
M  END
>  <rName>  (483) 
Gly_CO2H

>  <PQ_SYMBOL>  (483) 
Gly_CO2H

>  <FULL_NAME>  (483) 
L-Aminomalonic acid

>  <IUPAC_CONDENSED>  (483) 
Gly(CO2H)

>  <IUPAC>  (483) 
2-aminopropanedioic acid

>  <TYPE>  (483) 
Backbone

>  <CLASS>  (483) 
alpha

>  <ANALOG>  (483) 
X

>  <MOL_WT>  (483) 
119.07599999999998

>  <LOGP>  (483) 
-1.5171000000000001

>  <TPSA>  (483) 
100.62000000000002

>  <POPULARITY>  (483) 
20.5

>  <PROTECTED>  (483) 
FALSE

>  <SMILES>  (483) 
NC(C(=O)O)C(=O)O

>  <INCHIKEY>  (483) 
JINBYESILADKFW-UHFFFAOYSA-N

$$$$
Cys_Bn
     RDKit          2D

 14 14  0  0  0  0  0  0  0  0999 V2000
   -2.7125    1.8435    0.0000 N   0  0  0  0  0  0  0  0  0  0  0  0
   -2.9490    0.3623    0.0000 C   0  0  0  0  0  0  0  0  0  0  0  0
   -1.7844   -0.5831    0.0000 C   0  0  0  0  0  0  0  0  0  0  0  0
   -0.3834   -0.0473    0.0000 S   0  0  0  0  0  0  0  0  0  0  0  0
    0.7812   -0.9927    0.0000 C   0  0  0  0  0  0  0  0  0  0  0  0
    2.1822   -0.4569    0.0000 C   0  0  0  0  0  0  0  0  0  0  0  0
    2.4187    1.0244    0.0000 C   0  0  0  0  0  0  0  0  0  0  0  0
    3.8197    1.5602    0.0000 C   0  0  0  0  0  0  0  0  0  0  0  0
    4.9842    0.6148    0.0000 C   0  0  0  0  0  0  0  0  0  0  0  0
    4.7478   -0.8664    0.0000 C   0  0  0  0  0  0  0  0  0  0  0  0
    3.3467   -1.4023    0.0000 C   0  0  0  0  0  0  0  0  0  0  0  0
   -4.3500   -0.1735    0.0000 C   0  0  0  0  0  0  0  0  0  0  0  0
   -4.5865   -1.6548    0.0000 O   0  0  0  0  0  0  0  0  0  0  0  0
   -5.5146    0.7719    0.0000 O   0  0  0  0  0  0  0  0  0  0  0  0
  2  1  1  1
  2  3  1  0
  3  4  1  0
  4  5  1  0
  5  6  1  0
  6  7  2  0
  7  8  1  0
  8  9  2  0
  9 10  1  0
 10 11  2  0
  2 12  1  0
 12 13  2  0
 12 14  1  0
 11  6  1  0
M  END
>  <rName>  (484) 
Cys_Bn

>  <PQ_SYMBOL>  (484) 
Cys_Bn

>  <FULL_NAME>  (484) 
S-Benzyl-L-Cysteine

>  <IUPAC_CONDENSED>  (484) 
Cys(Bn)

>  <IUPAC>  (484) 
(2R)-2-amino-3-(benzylsulfanyl)propanoic acid

>  <TYPE>  (484) 
Backbone

>  <CLASS>  (484) 
alpha

>  <ANALOG>  (484) 
Cys

>  <MOL_WT>  (484) 
211.286

>  <LOGP>  (484) 
1.3317

>  <TPSA>  (484) 
63.32000000000001

>  <POPULARITY>  (484) 
19.8

>  <PROTECTED>  (484) 
TRUE

>  <SMILES>  (484) 
N[C@@H](CSCc1(ccccc1))C(=O)O

>  <INCHIKEY>  (484) 
GHBAYRBVXCRIHT-VIFPVBQESA-N

$$$$
Asp_3ROH
     RDKit          2D

 10  9  0  0  0  0  0  0  0  0999 V2000
    0.3742    1.9487    0.0000 N   0  0  0  0  0  0  0  0  0  0  0  0
    0.5891    0.4642    0.0000 C   0  0  0  0  0  0  0  0  0  0  0  0
   -0.5891   -0.4642    0.0000 C   0  0  0  0  0  0  0  0  0  0  0  0
   -0.3742   -1.9487    0.0000 O   0  0  0  0  0  0  0  0  0  0  0  0
   -1.9822    0.0920    0.0000 C   0  0  0  0  0  0  0  0  0  0  0  0
   -2.1971    1.5765    0.0000 O   0  0  0  0  0  0  0  0  0  0  0  0
   -3.1604   -0.8364    0.0000 O   0  0  0  0  0  0  0  0  0  0  0  0
    1.9822   -0.0920    0.0000 C   0  0  0  0  0  0  0  0  0  0  0  0
    2.1971   -1.5765    0.0000 O   0  0  0  0  0  0  0  0  0  0  0  0
    3.1604    0.8364    0.0000 O   0  0  0  0  0  0  0  0  0  0  0  0
  2  1  1  6
  2  3  1  0
  3  4  1  1
  3  5  1  0
  5  6  2  0
  5  7  1  0
  2  8  1  0
  8  9  2  0
  8 10  1  0
M  END
>  <rName>  (485) 
Asp_3ROH

>  <PQ_SYMBOL>  (485) 
Asp_3ROH

>  <FULL_NAME>  (485) 
(2S,3R)-Hydroxy-L-Aspartic acid

>  <IUPAC_CONDENSED>  (485) 
Asp(3R-OH)

>  <IUPAC>  (485) 
(2S,3R)-2-amino-3-hydroxybutanedioic acid

>  <TYPE>  (485) 
Backbone

>  <CLASS>  (485) 
alpha

>  <ANALOG>  (485) 
Asp

>  <MOL_WT>  (485) 
149.102

>  <LOGP>  (485) 
-2.1561999999999997

>  <TPSA>  (485) 
120.85000000000001

>  <POPULARITY>  (485) 
15.3

>  <PROTECTED>  (485) 
TRUE

>  <SMILES>  (485) 
N[C@@H]([C@@H](O)C(=O)O)C(=O)O

>  <INCHIKEY>  (485) 
YYLQUHNPNCGKJQ-NHYDCYSISA-N

$$$$
Ala_benzothiophen3yl
     RDKit          2D

 15 16  0  0  0  0  0  0  0  0999 V2000
   -2.6183   -1.7023    0.0000 N   0  0  0  0  0  0  0  0  0  0  0  0
   -2.5622   -0.2034    0.0000 C   0  0  0  0  0  0  0  0  0  0  0  0
   -1.2360    0.4975    0.0000 C   0  0  0  0  0  0  0  0  0  0  0  0
    0.0341   -0.3006    0.0000 C   0  0  0  0  0  0  0  0  0  0  0  0
    0.1349   -1.7972    0.0000 C   0  0  0  0  0  0  0  0  0  0  0  0
    1.5895   -2.1637    0.0000 S   0  0  0  0  0  0  0  0  0  0  0  0
    2.3875   -0.8937    0.0000 C   0  0  0  0  0  0  0  0  0  0  0  0
    3.8654   -0.6369    0.0000 C   0  0  0  0  0  0  0  0  0  0  0  0
    4.3820    0.7713    0.0000 C   0  0  0  0  0  0  0  0  0  0  0  0
    3.4207    1.9228    0.0000 C   0  0  0  0  0  0  0  0  0  0  0  0
    1.9429    1.6661    0.0000 C   0  0  0  0  0  0  0  0  0  0  0  0
    1.4263    0.2578    0.0000 C   0  0  0  0  0  0  0  0  0  0  0  0
   -3.8322    0.5947    0.0000 C   0  0  0  0  0  0  0  0  0  0  0  0
   -3.7761    2.0937    0.0000 O   0  0  0  0  0  0  0  0  0  0  0  0
   -5.1584   -0.1061    0.0000 O   0  0  0  0  0  0  0  0  0  0  0  0
  2  1  1  6
  2  3  1  0
  3  4  1  0
  4  5  2  0
  5  6  1  0
  6  7  1  0
  7  8  2  0
  8  9  1  0
  9 10  2  0
 10 11  1  0
 11 12  2  0
  2 13  1  0
 13 14  2  0
 13 15  1  0
 12  4  1  0
 12  7  1  0
M  END
>  <rName>  (486) 
Ala_benzothiophen3yl

>  <PQ_SYMBOL>  (486) 
Ala_benzothiophen3yl

>  <FULL_NAME>  (486) 
3-(1-Benzothiophen-3-Yl)-L-Alanine

>  <IUPAC_CONDENSED>  (486) 
Ala(benzothiophen-3-yl)

>  <IUPAC>  (486) 
(2S)-2-amino-3-(1-benzothiophen-3-yl)propanoic acid

>  <TYPE>  (486) 
Backbone

>  <CLASS>  (486) 
alpha

>  <ANALOG>  (486) 
Phe

>  <MOL_WT>  (486) 
221.281

>  <LOGP>  (486) 
1.8557000000000001

>  <TPSA>  (486) 
63.32000000000001

>  <POPULARITY>  (486) 
24.3

>  <PROTECTED>  (486) 
TRUE

>  <SMILES>  (486) 
N[C@@H](Cc1(csc2(ccccc12)))C(=O)O

>  <INCHIKEY>  (486) 
GAUUPDQWKHTCAX-VIFPVBQESA-N

$$$$
Gly_tBu
     RDKit          2D

  9  8  0  0  0  0  0  0  0  0999 V2000
    0.1862    2.0800    0.0000 N   0  0  0  0  0  0  0  0  0  0  0  0
    0.1560    0.5803    0.0000 C   0  0  0  0  0  0  0  0  0  0  0  0
   -1.1578   -0.1434    0.0000 C   0  0  0  0  0  0  0  0  0  0  0  0
   -1.8815    1.1705    0.0000 C   0  0  0  0  0  0  0  0  0  0  0  0
   -0.4341   -1.4573    0.0000 C   0  0  0  0  0  0  0  0  0  0  0  0
   -2.4717   -0.8671    0.0000 C   0  0  0  0  0  0  0  0  0  0  0  0
    1.4397   -0.1957    0.0000 C   0  0  0  0  0  0  0  0  0  0  0  0
    1.4095   -1.6954    0.0000 O   0  0  0  0  0  0  0  0  0  0  0  0
    2.7536    0.5280    0.0000 O   0  0  0  0  0  0  0  0  0  0  0  0
  2  1  1  6
  2  3  1  0
  3  4  1  0
  3  5  1  0
  3  6  1  0
  2  7  1  0
  7  8  2  0
  7  9  1  0
M  END
>  <rName>  (487) 
Gly_tBu

>  <PQ_SYMBOL>  (487) 
Gly_tBu

>  <FULL_NAME>  (487) 
3-Methyl-L-Valine

>  <IUPAC_CONDENSED>  (487) 
Gly(tBu)

>  <IUPAC>  (487) 
(2S)-2-amino-3,3-dimethylbutanoic acid

>  <TYPE>  (487) 
Backbone

>  <CLASS>  (487) 
alpha

>  <ANALOG>  (487) 
Val

>  <MOL_WT>  (487) 
131.17499999999998

>  <LOGP>  (487) 
0.44439999999999985

>  <TPSA>  (487) 
63.32000000000001

>  <POPULARITY>  (487) 
41.5

>  <PROTECTED>  (487) 
TRUE

>  <SMILES>  (487) 
N[C@@H](C(C)(C)C)C(=O)O

>  <INCHIKEY>  (487) 
NPDBDJFLKKQMCM-SCSAIBSYSA-N

$$$$
Cys_EtO2H
     RDKit          2D

 11 10  0  0  0  0  0  0  0  0999 V2000
   -1.6269   -1.8430    0.0000 N   0  0  0  0  0  0  0  0  0  0  0  0
   -1.7489   -0.3480    0.0000 C   0  0  0  0  0  0  0  0  0  0  0  0
   -0.5152    0.5052    0.0000 C   0  0  0  0  0  0  0  0  0  0  0  0
    0.8406   -0.1366    0.0000 S   0  0  0  0  0  0  0  0  0  0  0  0
    2.0743    0.7166    0.0000 C   0  0  0  0  0  0  0  0  0  0  0  0
    3.4300    0.0748    0.0000 C   0  0  0  0  0  0  0  0  0  0  0  0
    3.5521   -1.4203    0.0000 O   0  0  0  0  0  0  0  0  0  0  0  0
    4.6637    0.9280    0.0000 O   0  0  0  0  0  0  0  0  0  0  0  0
   -3.1047    0.2938    0.0000 C   0  0  0  0  0  0  0  0  0  0  0  0
   -3.2267    1.7889    0.0000 O   0  0  0  0  0  0  0  0  0  0  0  0
   -4.3384   -0.5594    0.0000 O   0  0  0  0  0  0  0  0  0  0  0  0
  2  1  1  6
  2  3  1  0
  3  4  1  0
  4  5  1  0
  5  6  1  0
  6  7  2  0
  6  8  1  0
  2  9  1  0
  9 10  2  0
  9 11  1  0
M  END
>  <rName>  (488) 
Cys_EtO2H

>  <PQ_SYMBOL>  (488) 
Cys_EtO2H

>  <FULL_NAME>  (488) 
S-Carboxymethyl-L-Cysteine

>  <IUPAC_CONDENSED>  (488) 
Cys(EtO2H)

>  <IUPAC>  (488) 
(2R)-2-amino-3-((2-hydroxy-2-oxoethyl)sulfanyl)propanoic acid

>  <TYPE>  (488) 
Backbone

>  <CLASS>  (488) 
alpha

>  <ANALOG>  (488) 
Cys

>  <MOL_WT>  (488) 
179.197

>  <LOGP>  (488) 
-0.7838999999999998

>  <TPSA>  (488) 
100.62000000000002

>  <POPULARITY>  (488) 
22.4

>  <PROTECTED>  (488) 
TRUE

>  <SMILES>  (488) 
N[C@@H](CSCC(=O)O)C(=O)O

>  <INCHIKEY>  (488) 
GBFLZEXEOZUWRN-VKHMYHEASA-N

$$$$
Chg
     RDKit          2D

 11 11  0  0  0  0  0  0  0  0999 V2000
   -1.6031   -2.0851    0.0000 N   0  0  0  0  0  0  0  0  0  0  0  0
   -1.1770   -0.6469    0.0000 C   0  0  0  0  0  0  0  0  0  0  0  0
    0.2816   -0.2968    0.0000 C   0  0  0  0  0  0  0  0  0  0  0  0
    0.7077    1.1415    0.0000 C   0  0  0  0  0  0  0  0  0  0  0  0
    2.1662    1.4916    0.0000 C   0  0  0  0  0  0  0  0  0  0  0  0
    3.1987    0.4035    0.0000 C   0  0  0  0  0  0  0  0  0  0  0  0
    2.7726   -1.0347    0.0000 C   0  0  0  0  0  0  0  0  0  0  0  0
    1.3141   -1.3849    0.0000 C   0  0  0  0  0  0  0  0  0  0  0  0
   -2.2095    0.4412    0.0000 C   0  0  0  0  0  0  0  0  0  0  0  0
   -1.7834    1.8794    0.0000 O   0  0  0  0  0  0  0  0  0  0  0  0
   -3.6680    0.0911    0.0000 O   0  0  0  0  0  0  0  0  0  0  0  0
  2  1  1  6
  2  3  1  0
  3  4  1  0
  4  5  1  0
  5  6  1  0
  6  7  1  0
  7  8  1  0
  2  9  1  0
  9 10  2  0
  9 11  1  0
  8  3  1  0
M  END
>  <rName>  (489) 
Chg

>  <PQ_SYMBOL>  (489) 
Chg

>  <FULL_NAME>  (489) 
L-Cyclohexylglycine

>  <IUPAC_CONDENSED>  (489) 
Chg

>  <IUPAC>  (489) 
(2S)-2-amino-2-cyclohexylacetic acid

>  <TYPE>  (489) 
Backbone

>  <CLASS>  (489) 
alpha

>  <ANALOG>  (489) 
X

>  <MOL_WT>  (489) 
157.21300000000002

>  <LOGP>  (489) 
0.9785999999999997

>  <TPSA>  (489) 
63.32000000000001

>  <POPULARITY>  (489) 
37.1

>  <PROTECTED>  (489) 
TRUE

>  <SMILES>  (489) 
N[C@@H](C1(CCCCC1))C(=O)O

>  <INCHIKEY>  (489) 
WAMWSIDTKSNDCU-ZETCQYMHSA-N

$$$$
Phe_2CN
     RDKit          2D

 14 14  0  0  0  0  0  0  0  0999 V2000
   -1.7887    1.9295    0.0000 N   0  0  0  0  0  0  0  0  0  0  0  0
   -1.9182    0.4351    0.0000 C   0  0  0  0  0  0  0  0  0  0  0  0
   -0.6887   -0.4243    0.0000 C   0  0  0  0  0  0  0  0  0  0  0  0
    0.6702    0.2108    0.0000 C   0  0  0  0  0  0  0  0  0  0  0  0
    0.7997    1.7052    0.0000 C   0  0  0  0  0  0  0  0  0  0  0  0
    2.1586    2.3403    0.0000 C   0  0  0  0  0  0  0  0  0  0  0  0
    3.3881    1.4809    0.0000 C   0  0  0  0  0  0  0  0  0  0  0  0
    3.2586   -0.0135    0.0000 C   0  0  0  0  0  0  0  0  0  0  0  0
    1.8997   -0.6485    0.0000 C   0  0  0  0  0  0  0  0  0  0  0  0
    1.7702   -2.1429    0.0000 C   0  0  0  0  0  0  0  0  0  0  0  0
    1.6407   -3.6373    0.0000 N   0  0  0  0  0  0  0  0  0  0  0  0
   -3.2771   -0.2000    0.0000 C   0  0  0  0  0  0  0  0  0  0  0  0
   -3.4066   -1.6944    0.0000 O   0  0  0  0  0  0  0  0  0  0  0  0
   -4.5065    0.6593    0.0000 O   0  0  0  0  0  0  0  0  0  0  0  0
  2  1  1  1
  2  3  1  0
  3  4  1  0
  4  5  2  0
  5  6  1  0
  6  7  2  0
  7  8  1  0
  8  9  2  0
  9 10  1  0
 10 11  3  0
  2 12  1  0
 12 13  2  0
 12 14  1  0
  9  4  1  0
M  END
>  <rName>  (490) 
Phe_2CN

>  <PQ_SYMBOL>  (490) 
Phe_2CN

>  <FULL_NAME>  (490) 
2-Cyano-L-Phenylalanine

>  <IUPAC_CONDENSED>  (490) 
Phe(2-CN)

>  <IUPAC>  (490) 
(2S)-2-amino-3-(2-(nitrilomethyl)phenyl)propanoic acid

>  <TYPE>  (490) 
Backbone

>  <CLASS>  (490) 
alpha

>  <ANALOG>  (490) 
Phe

>  <MOL_WT>  (490) 
190.20199999999997

>  <LOGP>  (490) 
0.5126799999999998

>  <TPSA>  (490) 
87.11

>  <POPULARITY>  (490) 
7

>  <PROTECTED>  (490) 
TRUE

>  <SMILES>  (490) 
N[C@@H](Cc1(ccccc1C#N))C(=O)O

>  <INCHIKEY>  (490) 
OCDHPLVCNWBKJN-VIFPVBQESA-N

$$$$
Ala_cPent
     RDKit          2D

 11 11  0  0  0  0  0  0  0  0999 V2000
   -0.9461    1.6947    0.0000 N   0  0  0  0  0  0  0  0  0  0  0  0
   -1.3100    0.2395    0.0000 C   0  0  0  0  0  0  0  0  0  0  0  0
   -0.2317   -0.8032    0.0000 C   0  0  0  0  0  0  0  0  0  0  0  0
    1.2105   -0.3908    0.0000 C   0  0  0  0  0  0  0  0  0  0  0  0
    2.3919   -1.3151    0.0000 C   0  0  0  0  0  0  0  0  0  0  0  0
    3.6360   -0.4772    0.0000 C   0  0  0  0  0  0  0  0  0  0  0  0
    3.2236    0.9650    0.0000 C   0  0  0  0  0  0  0  0  0  0  0  0
    1.7245    1.0184    0.0000 C   0  0  0  0  0  0  0  0  0  0  0  0
   -2.7522   -0.1729    0.0000 C   0  0  0  0  0  0  0  0  0  0  0  0
   -3.1161   -1.6281    0.0000 O   0  0  0  0  0  0  0  0  0  0  0  0
   -3.8304    0.8698    0.0000 O   0  0  0  0  0  0  0  0  0  0  0  0
  2  1  1  1
  2  3  1  0
  3  4  1  0
  4  5  1  0
  5  6  1  0
  6  7  1  0
  7  8  1  0
  2  9  1  0
  9 10  2  0
  9 11  1  0
  8  4  1  0
M  END
>  <rName>  (491) 
Ala_cPent

>  <PQ_SYMBOL>  (491) 
Ala_cPent

>  <FULL_NAME>  (491) 
3-Cyclopentane-L-Alanine

>  <IUPAC_CONDENSED>  (491) 
Ala(cPent)

>  <IUPAC>  (491) 
(2S)-2-amino-3-cyclopentylpropanoic acid

>  <TYPE>  (491) 
Backbone

>  <CLASS>  (491) 
alpha

>  <ANALOG>  (491) 
Ala

>  <MOL_WT>  (491) 
157.21300000000002

>  <LOGP>  (491) 
0.9785999999999997

>  <TPSA>  (491) 
63.32000000000001

>  <POPULARITY>  (491) 
22.6

>  <PROTECTED>  (491) 
TRUE

>  <SMILES>  (491) 
N[C@@H](CC1(CCCC1))C(=O)O

>  <INCHIKEY>  (491) 
KDYAKYRBGLKMAK-ZETCQYMHSA-N

$$$$
nTyr
     RDKit          2D

 12 12  0  0  0  0  0  0  0  0999 V2000
   -2.1139   -2.0272    0.0000 N   0  0  0  0  0  0  0  0  0  0  0  0
   -1.6041   -0.6165    0.0000 C   0  0  0  0  0  0  0  0  0  0  0  0
   -0.1275   -0.3527    0.0000 C   0  0  0  0  0  0  0  0  0  0  0  0
    0.3824    1.0580    0.0000 C   0  0  0  0  0  0  0  0  0  0  0  0
    1.8590    1.3219    0.0000 C   0  0  0  0  0  0  0  0  0  0  0  0
    2.8258    0.1750    0.0000 C   0  0  0  0  0  0  0  0  0  0  0  0
    4.3024    0.4388    0.0000 O   0  0  0  0  0  0  0  0  0  0  0  0
    2.3159   -1.2357    0.0000 C   0  0  0  0  0  0  0  0  0  0  0  0
    0.8393   -1.4995    0.0000 C   0  0  0  0  0  0  0  0  0  0  0  0
   -2.5709    0.5304    0.0000 C   0  0  0  0  0  0  0  0  0  0  0  0
   -2.0610    1.9411    0.0000 O   0  0  0  0  0  0  0  0  0  0  0  0
   -4.0475    0.2665    0.0000 O   0  0  0  0  0  0  0  0  0  0  0  0
  2  1  1  6
  2  3  1  0
  3  4  1  0
  4  5  2  0
  5  6  1  0
  6  7  1  0
  6  8  2  0
  8  9  1  0
  2 10  1  0
 10 11  2  0
 10 12  1  0
  9  3  2  0
M  END
>  <rName>  (492) 
nTyr

>  <PQ_SYMBOL>  (492) 
nTyr

>  <FULL_NAME>  (492) 
4-Hydroxyphenylglycine, Oxfenicine

>  <IUPAC_CONDENSED>  (492) 
nTyr

>  <IUPAC>  (492) 
(2S)-2-amino-2-(4-hydroxyphenyl)acetic acid

>  <TYPE>  (492) 
Backbone

>  <CLASS>  (492) 
alpha

>  <ANALOG>  (492) 
X

>  <MOL_WT>  (492) 
167.16399999999996

>  <LOGP>  (492) 
0.4766

>  <TPSA>  (492) 
83.55

>  <POPULARITY>  (492) 
25.1

>  <PROTECTED>  (492) 
TRUE

>  <SMILES>  (492) 
N[C@@H](c1(ccc(O)cc1))C(=O)O

>  <INCHIKEY>  (492) 
LJCWONGJFPCTTL-ZETCQYMHSA-N

$$$$
Dab
     RDKit          2D

  8  7  0  0  0  0  0  0  0  0999 V2000
   -0.2517    1.8862    0.0000 N   0  0  0  0  0  0  0  0  0  0  0  0
   -0.3100    0.3873    0.0000 C   0  0  0  0  0  0  0  0  0  0  0  0
    0.9590   -0.4126    0.0000 C   0  0  0  0  0  0  0  0  0  0  0  0
    2.2862    0.2864    0.0000 C   0  0  0  0  0  0  0  0  0  0  0  0
    3.5551   -0.5134    0.0000 N   0  0  0  0  0  0  0  0  0  0  0  0
   -1.6371   -0.3117    0.0000 C   0  0  0  0  0  0  0  0  0  0  0  0
   -1.6954   -1.8105    0.0000 O   0  0  0  0  0  0  0  0  0  0  0  0
   -2.9061    0.4882    0.0000 O   0  0  0  0  0  0  0  0  0  0  0  0
  2  1  1  1
  2  3  1  0
  3  4  1  0
  4  5  1  0
  2  6  1  0
  6  7  2  0
  6  8  1  0
M  END
>  <rName>  (493) 
Dab

>  <PQ_SYMBOL>  (493) 
Dab

>  <FULL_NAME>  (493) 
L-2,4-Diaminobutanoic acid

>  <IUPAC_CONDENSED>  (493) 
Dab

>  <IUPAC>  (493) 
(2S)-2,4-diaminobutanoic acid

>  <TYPE>  (493) 
Backbone

>  <CLASS>  (493) 
alpha

>  <ANALOG>  (493) 
X

>  <MOL_WT>  (493) 
118.13599999999998

>  <LOGP>  (493) 
-1.2528999999999997

>  <TPSA>  (493) 
89.34

>  <POPULARITY>  (493) 
49.4

>  <PROTECTED>  (493) 
TRUE

>  <SMILES>  (493) 
N[C@@H](CCN)C(=O)O

>  <INCHIKEY>  (493) 
OGNSCSPNOLGXSM-VKHMYHEASA-N

$$$$
Tyr_3OH
     RDKit          2D

 14 14  0  0  0  0  0  0  0  0999 V2000
   -2.0094    1.6916    0.0000 N   0  0  0  0  0  0  0  0  0  0  0  0
   -2.3243    0.2250    0.0000 C   0  0  0  0  0  0  0  0  0  0  0  0
   -1.2116   -0.7809    0.0000 C   0  0  0  0  0  0  0  0  0  0  0  0
    0.2159   -0.3203    0.0000 C   0  0  0  0  0  0  0  0  0  0  0  0
    0.5308    1.1463    0.0000 C   0  0  0  0  0  0  0  0  0  0  0  0
    1.9583    1.6069    0.0000 C   0  0  0  0  0  0  0  0  0  0  0  0
    3.0710    0.6009    0.0000 C   0  0  0  0  0  0  0  0  0  0  0  0
    4.4985    1.0615    0.0000 O   0  0  0  0  0  0  0  0  0  0  0  0
    2.7561   -0.8657    0.0000 C   0  0  0  0  0  0  0  0  0  0  0  0
    3.8688   -1.8716    0.0000 O   0  0  0  0  0  0  0  0  0  0  0  0
    1.3286   -1.3263    0.0000 C   0  0  0  0  0  0  0  0  0  0  0  0
   -3.7518   -0.2356    0.0000 C   0  0  0  0  0  0  0  0  0  0  0  0
   -4.0666   -1.7022    0.0000 O   0  0  0  0  0  0  0  0  0  0  0  0
   -4.8644    0.7704    0.0000 O   0  0  0  0  0  0  0  0  0  0  0  0
  2  1  1  1
  2  3  1  0
  3  4  1  0
  4  5  1  0
  5  6  2  0
  6  7  1  0
  7  8  1  0
  7  9  2  0
  9 10  1  0
  9 11  1  0
  2 12  1  0
 12 13  2  0
 12 14  1  0
 11  4  2  0
M  END
>  <rName>  (494) 
Tyr_3OH

>  <PQ_SYMBOL>  (494) 
Tyr_3OH

>  <FULL_NAME>  (494) 
3-Hydroxy-L-Tyrosine, L-Levodopa

>  <IUPAC_CONDENSED>  (494) 
Tyr(3-OH)

>  <IUPAC>  (494) 
(2S)-2-amino-3-(3,4-dihydroxyphenyl)propanoic acid

>  <TYPE>  (494) 
Backbone

>  <CLASS>  (494) 
alpha

>  <ANALOG>  (494) 
Tyr

>  <MOL_WT>  (494) 
197.18999999999997

>  <LOGP>  (494) 
0.052200000000000135

>  <TPSA>  (494) 
103.78000000000002

>  <POPULARITY>  (494) 
30.9

>  <PROTECTED>  (494) 
TRUE

>  <SMILES>  (494) 
N[C@@H](Cc1(ccc(O)c(O)c1))C(=O)O

>  <INCHIKEY>  (494) 
WTDRDQBEARUVNC-LURJTMIESA-N

$$$$
Nva_3Et
     RDKit          2D

 10  9  0  0  0  0  0  0  0  0999 V2000
    0.9030    1.9137    0.0000 N   0  0  0  0  0  0  0  0  0  0  0  0
    0.1012    0.6460    0.0000 C   0  0  0  0  0  0  0  0  0  0  0  0
    0.7981   -0.6823    0.0000 C   0  0  0  0  0  0  0  0  0  0  0  0
    2.2969   -0.7428    0.0000 C   0  0  0  0  0  0  0  0  0  0  0  0
    3.0987    0.5249    0.0000 C   0  0  0  0  0  0  0  0  0  0  0  0
   -0.0037   -1.9500    0.0000 C   0  0  0  0  0  0  0  0  0  0  0  0
   -1.5025   -1.8894    0.0000 C   0  0  0  0  0  0  0  0  0  0  0  0
   -1.3976    0.7065    0.0000 C   0  0  0  0  0  0  0  0  0  0  0  0
   -2.1994   -0.5612    0.0000 O   0  0  0  0  0  0  0  0  0  0  0  0
   -2.0946    2.0348    0.0000 O   0  0  0  0  0  0  0  0  0  0  0  0
  2  1  1  1
  2  3  1  0
  3  4  1  0
  4  5  1  0
  3  6  1  0
  6  7  1  0
  2  8  1  0
  8  9  2  0
  8 10  1  0
M  END
>  <rName>  (495) 
Nva_3Et

>  <PQ_SYMBOL>  (495) 
Nva_3Et

>  <FULL_NAME>  (495) 
3-Ethyl-L-Norvaline

>  <IUPAC_CONDENSED>  (495) 
Nva(3-Et)

>  <IUPAC>  (495) 
(2S)-2-amino-3-ethylpentanoic acid

>  <TYPE>  (495) 
Backbone

>  <CLASS>  (495) 
alpha

>  <ANALOG>  (495) 
Leu

>  <MOL_WT>  (495) 
145.202

>  <LOGP>  (495) 
0.8344999999999998

>  <TPSA>  (495) 
63.32000000000001

>  <POPULARITY>  (495) 
12.8

>  <PROTECTED>  (495) 
TRUE

>  <SMILES>  (495) 
N[C@@H](C(CC)CC)C(=O)O

>  <INCHIKEY>  (495) 
IXLUUORVBOXZGB-LURJTMIESA-N

$$$$
Asp_33diMe
     RDKit          2D

 11 10  0  0  0  0  0  0  0  0999 V2000
   -1.2063    2.1026    0.0000 N   0  0  0  0  0  0  0  0  0  0  0  0
   -0.8727    0.6402    0.0000 C   0  0  0  0  0  0  0  0  0  0  0  0
    0.5605    0.1978    0.0000 C   0  0  0  0  0  0  0  0  0  0  0  0
    1.0029    1.6310    0.0000 C   0  0  0  0  0  0  0  0  0  0  0  0
    0.1181   -1.2355    0.0000 C   0  0  0  0  0  0  0  0  0  0  0  0
    1.9938   -0.2446    0.0000 C   0  0  0  0  0  0  0  0  0  0  0  0
    3.0936    0.7754    0.0000 O   0  0  0  0  0  0  0  0  0  0  0  0
    2.3273   -1.7071    0.0000 O   0  0  0  0  0  0  0  0  0  0  0  0
   -1.9725   -0.3799    0.0000 C   0  0  0  0  0  0  0  0  0  0  0  0
   -1.6390   -1.8424    0.0000 O   0  0  0  0  0  0  0  0  0  0  0  0
   -3.4058    0.0625    0.0000 O   0  0  0  0  0  0  0  0  0  0  0  0
  2  1  1  1
  2  3  1  0
  3  4  1  0
  3  5  1  0
  3  6  1  0
  6  7  2  0
  6  8  1  0
  2  9  1  0
  9 10  2  0
  9 11  1  0
M  END
>  <rName>  (496) 
Asp_33diMe

>  <PQ_SYMBOL>  (496) 
Asp_33diMe

>  <FULL_NAME>  (496) 
3,3-Dimethyl-L-Aspartic acid

>  <IUPAC_CONDENSED>  (496) 
Asp(3,3-diMe)

>  <IUPAC>  (496) 
(2S)-2-amino-3,3-dimethylbutanedioic acid

>  <TYPE>  (496) 
Backbone

>  <CLASS>  (496) 
alpha

>  <ANALOG>  (496) 
Asp

>  <MOL_WT>  (496) 
161.15699999999998

>  <LOGP>  (496) 
-0.4908999999999997

>  <TPSA>  (496) 
100.62000000000002

>  <POPULARITY>  (496) 
10.4

>  <PROTECTED>  (496) 
TRUE

>  <SMILES>  (496) 
N[C@@H](C(C)(C)C(=O)O)C(=O)O

>  <INCHIKEY>  (496) 
NWZACHOBRMGGPL-GSVOUGTGSA-N

$$$$
Phe_3Et
     RDKit          2D

 14 14  0  0  0  0  0  0  0  0999 V2000
   -2.2742    1.6194    0.0000 N   0  0  0  0  0  0  0  0  0  0  0  0
   -2.3172    0.1200    0.0000 C   0  0  0  0  0  0  0  0  0  0  0  0
   -1.0402   -0.6669    0.0000 C   0  0  0  0  0  0  0  0  0  0  0  0
    0.2798    0.0456    0.0000 C   0  0  0  0  0  0  0  0  0  0  0  0
    0.3228    1.5450    0.0000 C   0  0  0  0  0  0  0  0  0  0  0  0
    1.6428    2.2574    0.0000 C   0  0  0  0  0  0  0  0  0  0  0  0
    2.9198    1.4705    0.0000 C   0  0  0  0  0  0  0  0  0  0  0  0
    2.8768   -0.0289    0.0000 C   0  0  0  0  0  0  0  0  0  0  0  0
    1.5568   -0.7414    0.0000 C   0  0  0  0  0  0  0  0  0  0  0  0
    4.1538   -0.8158    0.0000 C   0  0  0  0  0  0  0  0  0  0  0  0
    4.1108   -2.3152    0.0000 C   0  0  0  0  0  0  0  0  0  0  0  0
   -3.6372   -0.5924    0.0000 C   0  0  0  0  0  0  0  0  0  0  0  0
   -3.6802   -2.0918    0.0000 O   0  0  0  0  0  0  0  0  0  0  0  0
   -4.9142    0.1945    0.0000 O   0  0  0  0  0  0  0  0  0  0  0  0
  2  1  1  1
  2  3  1  0
  3  4  1  0
  4  5  2  0
  5  6  1  0
  6  7  2  0
  7  8  1  0
  8  9  2  0
  8 10  1  0
 10 11  1  0
  2 12  1  0
 12 13  2  0
 12 14  1  0
  9  4  1  0
M  END
>  <rName>  (497) 
Phe_3Et

>  <PQ_SYMBOL>  (497) 
Phe_3Et

>  <FULL_NAME>  (497) 
3-Ethyl-L-Phenylalanine

>  <IUPAC_CONDENSED>  (497) 
Phe(3-Et)

>  <IUPAC>  (497) 
(2S)-2-amino-3-(3-ethylphenyl)propanoic acid

>  <TYPE>  (497) 
Backbone

>  <CLASS>  (497) 
alpha

>  <ANALOG>  (497) 
Phe

>  <MOL_WT>  (497) 
193.24599999999995

>  <LOGP>  (497) 
1.2034000000000002

>  <TPSA>  (497) 
63.32000000000001

>  <POPULARITY>  (497) 
7.3

>  <PROTECTED>  (497) 
TRUE

>  <SMILES>  (497) 
N[C@@H](Cc1(cccc(c1)CC))C(=O)O

>  <INCHIKEY>  (497) 
VBHQPSVGLVGLLD-JTQLQIEISA-N

$$$$
Dap
     RDKit          2D

  7  6  0  0  0  0  0  0  0  0999 V2000
    0.5797   -1.7367    0.0000 N   0  0  0  0  0  0  0  0  0  0  0  0
    0.2514   -0.2730    0.0000 C   0  0  0  0  0  0  0  0  0  0  0  0
    1.3548    0.7431    0.0000 C   0  0  0  0  0  0  0  0  0  0  0  0
    2.7865    0.2956    0.0000 N   0  0  0  0  0  0  0  0  0  0  0  0
   -1.1803    0.1745    0.0000 C   0  0  0  0  0  0  0  0  0  0  0  0
   -1.5086    1.6381    0.0000 O   0  0  0  0  0  0  0  0  0  0  0  0
   -2.2837   -0.8417    0.0000 O   0  0  0  0  0  0  0  0  0  0  0  0
  2  1  1  6
  2  3  1  0
  3  4  1  0
  2  5  1  0
  5  6  2  0
  5  7  1  0
M  END
>  <rName>  (498) 
Dap

>  <PQ_SYMBOL>  (498) 
Dap

>  <FULL_NAME>  (498) 
3-Amino-L-Alanine

>  <IUPAC_CONDENSED>  (498) 
Dap

>  <IUPAC>  (498) 
(2S)-2,3-diaminopropanoic acid

>  <TYPE>  (498) 
Backbone

>  <CLASS>  (498) 
alpha

>  <ANALOG>  (498) 
X

>  <MOL_WT>  (498) 
104.10899999999998

>  <LOGP>  (498) 
-1.6429999999999998

>  <TPSA>  (498) 
89.34

>  <POPULARITY>  (498) 
52.7

>  <PROTECTED>  (498) 
TRUE

>  <SMILES>  (498) 
N[C@@H](CN)C(=O)O

>  <INCHIKEY>  (498) 
PECYZEOJVXMISF-REOHCLBHSA-N

$$$$
Ala_2furyl
     RDKit          2D

 11 11  0  0  0  0  0  0  0  0999 V2000
   -0.9461    1.6947    0.0000 N   0  0  0  0  0  0  0  0  0  0  0  0
   -1.3100    0.2395    0.0000 C   0  0  0  0  0  0  0  0  0  0  0  0
   -0.2317   -0.8032    0.0000 C   0  0  0  0  0  0  0  0  0  0  0  0
    1.2105   -0.3908    0.0000 C   0  0  0  0  0  0  0  0  0  0  0  0
    2.3919   -1.3151    0.0000 C   0  0  0  0  0  0  0  0  0  0  0  0
    3.6360   -0.4772    0.0000 C   0  0  0  0  0  0  0  0  0  0  0  0
    3.2236    0.9650    0.0000 C   0  0  0  0  0  0  0  0  0  0  0  0
    1.7245    1.0184    0.0000 O   0  0  0  0  0  0  0  0  0  0  0  0
   -2.7522   -0.1729    0.0000 C   0  0  0  0  0  0  0  0  0  0  0  0
   -3.1161   -1.6281    0.0000 O   0  0  0  0  0  0  0  0  0  0  0  0
   -3.8304    0.8698    0.0000 O   0  0  0  0  0  0  0  0  0  0  0  0
  2  1  1  1
  2  3  1  0
  3  4  1  0
  4  5  2  0
  5  6  1  0
  6  7  2  0
  7  8  1  0
  2  9  1  0
  9 10  2  0
  9 11  1  0
  8  4  1  0
M  END
>  <rName>  (499) 
Ala_2furyl

>  <PQ_SYMBOL>  (499) 
Ala_2furyl

>  <FULL_NAME>  (499) 
3-(2-Furyl)-L-Alanine

>  <IUPAC_CONDENSED>  (499) 
Ala(2-furyl)

>  <IUPAC>  (499) 
(2S)-2-amino-3-(furan-2-yl)propanoic acid

>  <TYPE>  (499) 
Backbone

>  <CLASS>  (499) 
alpha

>  <ANALOG>  (499) 
Phe

>  <MOL_WT>  (499) 
155.15299999999996

>  <LOGP>  (499) 
0.23399999999999993

>  <TPSA>  (499) 
76.46

>  <POPULARITY>  (499) 
13.6

>  <PROTECTED>  (499) 
TRUE

>  <SMILES>  (499) 
N[C@@H](Cc1(ccco1))C(=O)O

>  <INCHIKEY>  (499) 
RXZQHZDTHUUJQJ-LURJTMIESA-N

$$$$
Nar
     RDKit          2D

 11 10  0  0  0  0  0  0  0  0999 V2000
   -1.6269    1.8430    0.0000 N   0  0  0  0  0  0  0  0  0  0  0  0
   -1.7489    0.3480    0.0000 C   0  0  0  0  0  0  0  0  0  0  0  0
   -0.5152   -0.5052    0.0000 C   0  0  0  0  0  0  0  0  0  0  0  0
    0.8406    0.1366    0.0000 C   0  0  0  0  0  0  0  0  0  0  0  0
    2.0743   -0.7166    0.0000 N   0  0  0  0  0  0  0  0  0  0  0  0
    3.4300   -0.0748    0.0000 C   0  0  0  0  0  0  0  0  0  0  0  0
    3.5521    1.4203    0.0000 N   0  0  0  0  0  0  0  0  0  0  0  0
    4.6637   -0.9280    0.0000 N   0  0  0  0  0  0  0  0  0  0  0  0
   -3.1047   -0.2938    0.0000 C   0  0  0  0  0  0  0  0  0  0  0  0
   -3.2267   -1.7889    0.0000 O   0  0  0  0  0  0  0  0  0  0  0  0
   -4.3384    0.5594    0.0000 O   0  0  0  0  0  0  0  0  0  0  0  0
  2  1  1  1
  2  3  1  0
  3  4  1  0
  4  5  1  0
  5  6  1  0
  6  7  2  0
  6  8  1  0
  2  9  1  0
  9 10  2  0
  9 11  1  0
M  END
>  <rName>  (500) 
Nar

>  <PQ_SYMBOL>  (500) 
Nar

>  <FULL_NAME>  (500) 
L-Norarginine

>  <IUPAC_CONDENSED>  (500) 
Nar

>  <IUPAC>  (500) 
(2S)-2-amino-4-(((amino)(imino)methyl)amino)butanoic acid

>  <TYPE>  (500) 
Backbone

>  <CLASS>  (500) 
alpha

>  <ANALOG>  (500) 
Arg

>  <MOL_WT>  (500) 
160.177

>  <LOGP>  (500) 
-1.7285299999999992

>  <TPSA>  (500) 
125.22000000000001

>  <POPULARITY>  (500) 
13.7

>  <PROTECTED>  (500) 
TRUE

>  <SMILES>  (500) 
N[C@@H](CCNC(=N)N)C(=O)O

>  <INCHIKEY>  (500) 
IFPQOXNWLSRZKX-VKHMYHEASA-N

$$$$
Ala_guanidino
     RDKit          2D

 10  9  0  0  0  0  0  0  0  0999 V2000
    1.2717    1.9622    0.0000 N   0  0  0  0  0  0  0  0  0  0  0  0
    1.1946    0.4642    0.0000 C   0  0  0  0  0  0  0  0  0  0  0  0
   -0.1413   -0.2180    0.0000 C   0  0  0  0  0  0  0  0  0  0  0  0
   -1.4001    0.5978    0.0000 N   0  0  0  0  0  0  0  0  0  0  0  0
   -2.7359   -0.0845    0.0000 C   0  0  0  0  0  0  0  0  0  0  0  0
   -2.8131   -1.5825    0.0000 N   0  0  0  0  0  0  0  0  0  0  0  0
   -3.9947    0.7313    0.0000 N   0  0  0  0  0  0  0  0  0  0  0  0
    2.4533   -0.3516    0.0000 C   0  0  0  0  0  0  0  0  0  0  0  0
    2.3762   -1.8496    0.0000 O   0  0  0  0  0  0  0  0  0  0  0  0
    3.7892    0.3306    0.0000 O   0  0  0  0  0  0  0  0  0  0  0  0
  2  1  1  6
  2  3  1  0
  3  4  1  0
  4  5  1  0
  5  6  2  0
  5  7  1  0
  2  8  1  0
  8  9  2  0
  8 10  1  0
M  END
>  <rName>  (501) 
Ala_guanidino

>  <PQ_SYMBOL>  (501) 
Ala_guanidino

>  <FULL_NAME>  (501) 
3-Carbamimidamido-L-Alanine

>  <IUPAC_CONDENSED>  (501) 
Ala(guanidino)

>  <IUPAC>  (501) 
(2S)-2-amino-3-(((amino)(imino)methyl)amino)propanoic acid

>  <TYPE>  (501) 
Backbone

>  <CLASS>  (501) 
alpha

>  <ANALOG>  (501) 
Arg

>  <MOL_WT>  (501) 
146.15

>  <LOGP>  (501) 
-2.1186299999999996

>  <TPSA>  (501) 
125.22000000000001

>  <POPULARITY>  (501) 
10.1

>  <PROTECTED>  (501) 
TRUE

>  <SMILES>  (501) 
N[C@@H](CNC(=N)N)C(=O)O

>  <INCHIKEY>  (501) 
XNBJHKABANTVCP-REOHCLBHSA-N

$$$$
Glu_OMe
     RDKit          2D

 11 10  0  0  0  0  0  0  0  0999 V2000
    1.7502    1.9632    0.0000 N   0  0  0  0  0  0  0  0  0  0  0  0
    1.6777    0.4649    0.0000 C   0  0  0  0  0  0  0  0  0  0  0  0
    0.3440   -0.2214    0.0000 C   0  0  0  0  0  0  0  0  0  0  0  0
   -0.9173    0.5905    0.0000 C   0  0  0  0  0  0  0  0  0  0  0  0
   -2.2511   -0.0959    0.0000 C   0  0  0  0  0  0  0  0  0  0  0  0
   -2.3235   -1.5941    0.0000 O   0  0  0  0  0  0  0  0  0  0  0  0
   -3.5123    0.7160    0.0000 O   0  0  0  0  0  0  0  0  0  0  0  0
   -4.8461    0.0297    0.0000 C   0  0  0  0  0  0  0  0  0  0  0  0
    2.9390   -0.3470    0.0000 C   0  0  0  0  0  0  0  0  0  0  0  0
    2.8665   -1.8452    0.0000 O   0  0  0  0  0  0  0  0  0  0  0  0
    4.2728    0.3394    0.0000 O   0  0  0  0  0  0  0  0  0  0  0  0
  2  1  1  6
  2  3  1  0
  3  4  1  0
  4  5  1  0
  5  6  2  0
  5  7  1  0
  7  8  1  0
  2  9  1  0
  9 10  2  0
  9 11  1  0
M  END
>  <rName>  (502) 
Glu_OMe

>  <PQ_SYMBOL>  (502) 
Glu_OMe

>  <FULL_NAME>  (502) 
5-Methylester-L-Glutamate

>  <IUPAC_CONDENSED>  (502) 
Glu(OMe)

>  <IUPAC>  (502) 
(2S)-2-amino-4-(methoxycarbonyl)butanoic acid

>  <TYPE>  (502) 
Backbone

>  <CLASS>  (502) 
alpha

>  <ANALOG>  (502) 
Glu

>  <MOL_WT>  (502) 
161.15699999999998

>  <LOGP>  (502) 
-0.6484999999999999

>  <TPSA>  (502) 
89.62000000000002

>  <POPULARITY>  (502) 
18.9

>  <PROTECTED>  (502) 
TRUE

>  <SMILES>  (502) 
N[C@@H](CCC(=O)OC)C(=O)O

>  <INCHIKEY>  (502) 
ZGEYCCHDTIDZAE-BYPYZUCNSA-N

$$$$
Hcy
     RDKit          2D

  8  7  0  0  0  0  0  0  0  0999 V2000
   -0.2517   -1.8862    0.0000 N   0  0  0  0  0  0  0  0  0  0  0  0
   -0.3100   -0.3873    0.0000 C   0  0  0  0  0  0  0  0  0  0  0  0
    0.9590    0.4126    0.0000 C   0  0  0  0  0  0  0  0  0  0  0  0
    2.2862   -0.2864    0.0000 C   0  0  0  0  0  0  0  0  0  0  0  0
    3.5551    0.5134    0.0000 S   0  0  0  0  0  0  0  0  0  0  0  0
   -1.6371    0.3117    0.0000 C   0  0  0  0  0  0  0  0  0  0  0  0
   -1.6954    1.8105    0.0000 O   0  0  0  0  0  0  0  0  0  0  0  0
   -2.9061   -0.4882    0.0000 O   0  0  0  0  0  0  0  0  0  0  0  0
  2  1  1  6
  2  3  1  0
  3  4  1  0
  4  5  1  0
  2  6  1  0
  6  7  2  0
  6  8  1  0
M  END
>  <rName>  (503) 
Hcy

>  <PQ_SYMBOL>  (503) 
Hcy

>  <FULL_NAME>  (503) 
Homo-L-Cysteine

>  <IUPAC_CONDENSED>  (503) 
Hcy

>  <IUPAC>  (503) 
(2S)-2-amino-4-sulfanylbutanoic acid

>  <TYPE>  (503) 
Backbone

>  <CLASS>  (503) 
alpha

>  <ANALOG>  (503) 
Cys

>  <MOL_WT>  (503) 
135.188

>  <LOGP>  (503) 
-0.28180000000000033

>  <TPSA>  (503) 
63.32000000000001

>  <POPULARITY>  (503) 
43.1

>  <PROTECTED>  (503) 
TRUE

>  <SMILES>  (503) 
N[C@@H](CCS)C(=O)O

>  <INCHIKEY>  (503) 
FFFHZYDWPBMWHY-VKHMYHEASA-N

$$$$
Nle_EtNH2
     RDKit          2D

 12 11  0  0  0  0  0  0  0  0999 V2000
   -2.5981    1.8750    0.0000 N   0  0  0  0  0  0  0  0  0  0  0  0
   -2.5981    0.3750    0.0000 C   0  0  0  0  0  0  0  0  0  0  0  0
   -1.2990   -0.3750    0.0000 C   0  0  0  0  0  0  0  0  0  0  0  0
    0.0000    0.3750    0.0000 C   0  0  0  0  0  0  0  0  0  0  0  0
    1.2990   -0.3750    0.0000 C   0  0  0  0  0  0  0  0  0  0  0  0
    2.5981    0.3750    0.0000 C   0  0  0  0  0  0  0  0  0  0  0  0
    3.8971   -0.3750    0.0000 C   0  0  0  0  0  0  0  0  0  0  0  0
    5.1962    0.3750    0.0000 C   0  0  0  0  0  0  0  0  0  0  0  0
    6.4952   -0.3750    0.0000 N   0  0  0  0  0  0  0  0  0  0  0  0
   -3.8971   -0.3750    0.0000 C   0  0  0  0  0  0  0  0  0  0  0  0
   -3.8971   -1.8750    0.0000 O   0  0  0  0  0  0  0  0  0  0  0  0
   -5.1962    0.3750    0.0000 O   0  0  0  0  0  0  0  0  0  0  0  0
  2  1  1  1
  2  3  1  0
  3  4  1  0
  4  5  1  0
  5  6  1  0
  6  7  1  0
  7  8  1  0
  8  9  1  0
  2 10  1  0
 10 11  2  0
 10 12  1  0
M  END
>  <rName>  (504) 
Nle_EtNH2

>  <PQ_SYMBOL>  (504) 
Nle_EtNH2

>  <FULL_NAME>  (504) 
(2S)-2,8-Diaminooctanoic Acid

>  <IUPAC_CONDENSED>  (504) 
Nle(EtNH2)

>  <IUPAC>  (504) 
(2S)-2,8-diaminooctanoic acid

>  <TYPE>  (504) 
Backbone

>  <CLASS>  (504) 
alpha

>  <ANALOG>  (504) 
X

>  <MOL_WT>  (504) 
174.244

>  <LOGP>  (504) 
0.30749999999999994

>  <TPSA>  (504) 
89.34

>  <POPULARITY>  (504) 
12

>  <PROTECTED>  (504) 
TRUE

>  <SMILES>  (504) 
N[C@@H](CCCCCCN)C(=O)O

>  <INCHIKEY>  (504) 
KMPBBRFCAYFTMR-ZETCQYMHSA-N

$$$$
hLeu
     RDKit          2D

 10  9  0  0  0  0  0  0  0  0999 V2000
    1.2717    1.9622    0.0000 N   0  0  0  0  0  0  0  0  0  0  0  0
    1.1946    0.4642    0.0000 C   0  0  0  0  0  0  0  0  0  0  0  0
   -0.1413   -0.2180    0.0000 C   0  0  0  0  0  0  0  0  0  0  0  0
   -1.4001    0.5978    0.0000 C   0  0  0  0  0  0  0  0  0  0  0  0
   -2.7359   -0.0845    0.0000 C   0  0  0  0  0  0  0  0  0  0  0  0
   -3.9947    0.7313    0.0000 C   0  0  0  0  0  0  0  0  0  0  0  0
   -2.8131   -1.5825    0.0000 C   0  0  0  0  0  0  0  0  0  0  0  0
    2.4533   -0.3516    0.0000 C   0  0  0  0  0  0  0  0  0  0  0  0
    2.3762   -1.8496    0.0000 O   0  0  0  0  0  0  0  0  0  0  0  0
    3.7892    0.3306    0.0000 O   0  0  0  0  0  0  0  0  0  0  0  0
  2  1  1  6
  2  3  1  0
  3  4  1  0
  4  5  1  0
  5  6  1  0
  5  7  1  0
  2  8  1  0
  8  9  2  0
  8 10  1  0
M  END
>  <rName>  (505) 
hLeu

>  <PQ_SYMBOL>  (505) 
hLeu

>  <FULL_NAME>  (505) 
Homo-L-Leucine

>  <IUPAC_CONDENSED>  (505) 
hLeu

>  <IUPAC>  (505) 
(2S)-2-amino-5-methylhexanoic acid

>  <TYPE>  (505) 
Backbone

>  <CLASS>  (505) 
alpha

>  <ANALOG>  (505) 
Leu

>  <MOL_WT>  (505) 
145.202

>  <LOGP>  (505) 
0.8344999999999998

>  <TPSA>  (505) 
63.32000000000001

>  <POPULARITY>  (505) 
35.2

>  <PROTECTED>  (505) 
TRUE

>  <SMILES>  (505) 
N[C@@H](CCC(C)C)C(=O)O

>  <INCHIKEY>  (505) 
FMUMEWVNYMUECA-LURJTMIESA-N

$$$$
Phe_4NH2
     RDKit          2D

 13 13  0  0  0  0  0  0  0  0999 V2000
   -1.5766    1.6851    0.0000 N   0  0  0  0  0  0  0  0  0  0  0  0
   -2.0128    0.2500    0.0000 C   0  0  0  0  0  0  0  0  0  0  0  0
   -0.9880   -0.8454    0.0000 C   0  0  0  0  0  0  0  0  0  0  0  0
    0.4730   -0.5055    0.0000 C   0  0  0  0  0  0  0  0  0  0  0  0
    0.9092    0.9296    0.0000 C   0  0  0  0  0  0  0  0  0  0  0  0
    2.3702    1.2695    0.0000 C   0  0  0  0  0  0  0  0  0  0  0  0
    3.3950    0.1741    0.0000 C   0  0  0  0  0  0  0  0  0  0  0  0
    4.8560    0.5140    0.0000 N   0  0  0  0  0  0  0  0  0  0  0  0
    2.9588   -1.2611    0.0000 C   0  0  0  0  0  0  0  0  0  0  0  0
    1.4978   -1.6009    0.0000 C   0  0  0  0  0  0  0  0  0  0  0  0
   -3.4738   -0.0899    0.0000 C   0  0  0  0  0  0  0  0  0  0  0  0
   -3.9100   -1.5250    0.0000 O   0  0  0  0  0  0  0  0  0  0  0  0
   -4.4986    1.0055    0.0000 O   0  0  0  0  0  0  0  0  0  0  0  0
  2  1  1  1
  2  3  1  0
  3  4  1  0
  4  5  1  0
  5  6  2  0
  6  7  1  0
  7  8  1  0
  7  9  2  0
  9 10  1  0
  2 11  1  0
 11 12  2  0
 11 13  1  0
 10  4  2  0
M  END
>  <rName>  (506) 
Phe_4NH2

>  <PQ_SYMBOL>  (506) 
Phe_4NH2

>  <FULL_NAME>  (506) 
4-Amino-L-Phenylalanine

>  <IUPAC_CONDENSED>  (506) 
Phe(4-NH2)

>  <IUPAC>  (506) 
(2S)-2-amino-3-(4-aminophenyl)propanoic acid

>  <TYPE>  (506) 
Backbone

>  <CLASS>  (506) 
alpha

>  <ANALOG>  (506) 
Phe

>  <MOL_WT>  (506) 
180.207

>  <LOGP>  (506) 
0.22319999999999962

>  <TPSA>  (506) 
89.34

>  <POPULARITY>  (506) 
36.6

>  <PROTECTED>  (506) 
TRUE

>  <SMILES>  (506) 
N[C@@H](Cc1(ccc(N)cc1))C(=O)O

>  <INCHIKEY>  (506) 
CMUHFUGDYMFHEI-QMMMGPOBSA-N

$$$$
hArg
     RDKit          2D

 13 12  0  0  0  0  0  0  0  0999 V2000
   -2.9072    1.8790    0.0000 N   0  0  0  0  0  0  0  0  0  0  0  0
   -2.9824    0.3808    0.0000 C   0  0  0  0  0  0  0  0  0  0  0  0
   -1.7226   -0.4334    0.0000 C   0  0  0  0  0  0  0  0  0  0  0  0
   -0.3876    0.2505    0.0000 C   0  0  0  0  0  0  0  0  0  0  0  0
    0.8722   -0.5637    0.0000 C   0  0  0  0  0  0  0  0  0  0  0  0
    2.2072    0.1202    0.0000 C   0  0  0  0  0  0  0  0  0  0  0  0
    3.4670   -0.6940    0.0000 N   0  0  0  0  0  0  0  0  0  0  0  0
    4.8020   -0.0101    0.0000 C   0  0  0  0  0  0  0  0  0  0  0  0
    4.8772    1.4880    0.0000 N   0  0  0  0  0  0  0  0  0  0  0  0
    6.0618   -0.8243    0.0000 N   0  0  0  0  0  0  0  0  0  0  0  0
   -4.3175   -0.3030    0.0000 C   0  0  0  0  0  0  0  0  0  0  0  0
   -4.3927   -1.8012    0.0000 O   0  0  0  0  0  0  0  0  0  0  0  0
   -5.5772    0.5112    0.0000 O   0  0  0  0  0  0  0  0  0  0  0  0
  2  1  1  1
  2  3  1  0
  3  4  1  0
  4  5  1  0
  5  6  1  0
  6  7  1  0
  7  8  1  0
  8  9  2  0
  8 10  1  0
  2 11  1  0
 11 12  2  0
 11 13  1  0
M  END
>  <rName>  (507) 
hArg

>  <PQ_SYMBOL>  (507) 
hArg

>  <FULL_NAME>  (507) 
Homo-L-Arginine

>  <IUPAC_CONDENSED>  (507) 
hArg

>  <IUPAC>  (507) 
(2S)-2-amino-6-(((amino)(imino)methyl)amino)hexanoic acid

>  <TYPE>  (507) 
Backbone

>  <CLASS>  (507) 
alpha

>  <ANALOG>  (507) 
Arg

>  <MOL_WT>  (507) 
188.231

>  <LOGP>  (507) 
-0.9483299999999986

>  <TPSA>  (507) 
125.22000000000001

>  <POPULARITY>  (507) 
36

>  <PROTECTED>  (507) 
TRUE

>  <SMILES>  (507) 
N[C@@H](CCCCNC(=N)N)C(=O)O

>  <INCHIKEY>  (507) 
QUOGESRFPZDMMT-YFKPBYRVSA-N

$$$$
Trp_5OH
     RDKit          2D

 16 17  0  0  0  0  0  0  0  0999 V2000
   -3.0564   -1.5854    0.0000 N   0  0  0  0  0  0  0  0  0  0  0  0
   -2.8364   -0.1016    0.0000 C   0  0  0  0  0  0  0  0  0  0  0  0
   -1.4415    0.4499    0.0000 C   0  0  0  0  0  0  0  0  0  0  0  0
   -0.2664   -0.4825    0.0000 C   0  0  0  0  0  0  0  0  0  0  0  0
   -0.3301   -1.9811    0.0000 C   0  0  0  0  0  0  0  0  0  0  0  0
    1.0756   -2.5048    0.0000 N   0  0  0  0  0  0  0  0  0  0  0  0
    2.0079   -1.3297    0.0000 C   0  0  0  0  0  0  0  0  0  0  0  0
    3.5050   -1.2364    0.0000 C   0  0  0  0  0  0  0  0  0  0  0  0
    4.1727    0.1068    0.0000 C   0  0  0  0  0  0  0  0  0  0  0  0
    3.3433    1.3567    0.0000 C   0  0  0  0  0  0  0  0  0  0  0  0
    4.0110    2.6999    0.0000 O   0  0  0  0  0  0  0  0  0  0  0  0
    1.8462    1.2633    0.0000 C   0  0  0  0  0  0  0  0  0  0  0  0
    1.1785   -0.0799    0.0000 C   0  0  0  0  0  0  0  0  0  0  0  0
   -4.0115    0.8308    0.0000 C   0  0  0  0  0  0  0  0  0  0  0  0
   -3.7915    2.3146    0.0000 O   0  0  0  0  0  0  0  0  0  0  0  0
   -5.4064    0.2794    0.0000 O   0  0  0  0  0  0  0  0  0  0  0  0
  2  1  1  6
  2  3  1  0
  3  4  1  0
  4  5  2  0
  5  6  1  0
  6  7  1  0
  7  8  1  0
  8  9  2  0
  9 10  1  0
 10 11  1  0
 10 12  2  0
 12 13  1  0
  2 14  1  0
 14 15  2  0
 14 16  1  0
 13  4  1  0
 13  7  2  0
M  END
>  <rName>  (508) 
Trp_5OH

>  <PQ_SYMBOL>  (508) 
Trp_5OH

>  <FULL_NAME>  (508) 
5-Hydroxy-L-Tryptophan

>  <IUPAC_CONDENSED>  (508) 
Trp(5-OH)

>  <IUPAC>  (508) 
(2S)-2-amino-3-(5-hydroxy-1H-indol-3-yl)propanoic acid

>  <TYPE>  (508) 
Backbone

>  <CLASS>  (508) 
alpha

>  <ANALOG>  (508) 
Trp

>  <MOL_WT>  (508) 
220.22799999999998

>  <LOGP>  (508) 
0.8279000000000003

>  <TPSA>  (508) 
99.34000000000002

>  <POPULARITY>  (508) 
19.5

>  <PROTECTED>  (508) 
TRUE

>  <SMILES>  (508) 
N[C@@H](Cc1(c[nH]c2(ccc(O)cc12)))C(=O)O

>  <INCHIKEY>  (508) 
LDCYZAJDBXYCGN-VIFPVBQESA-N

$$$$
Hse
     RDKit          2D

  8  7  0  0  0  0  0  0  0  0999 V2000
   -0.2517   -1.8862    0.0000 N   0  0  0  0  0  0  0  0  0  0  0  0
   -0.3100   -0.3873    0.0000 C   0  0  0  0  0  0  0  0  0  0  0  0
    0.9590    0.4126    0.0000 C   0  0  0  0  0  0  0  0  0  0  0  0
    2.2862   -0.2864    0.0000 C   0  0  0  0  0  0  0  0  0  0  0  0
    3.5551    0.5134    0.0000 O   0  0  0  0  0  0  0  0  0  0  0  0
   -1.6371    0.3117    0.0000 C   0  0  0  0  0  0  0  0  0  0  0  0
   -1.6954    1.8105    0.0000 O   0  0  0  0  0  0  0  0  0  0  0  0
   -2.9061   -0.4882    0.0000 O   0  0  0  0  0  0  0  0  0  0  0  0
  2  1  1  6
  2  3  1  0
  3  4  1  0
  4  5  1  0
  2  6  1  0
  6  7  2  0
  6  8  1  0
M  END
>  <rName>  (509) 
Hse

>  <PQ_SYMBOL>  (509) 
Hse

>  <FULL_NAME>  (509) 
Homo-L-serine

>  <IUPAC_CONDENSED>  (509) 
Hse

>  <IUPAC>  (509) 
(2S)-2-amino-4-hydroxybutanoic acid

>  <TYPE>  (509) 
Backbone

>  <CLASS>  (509) 
alpha

>  <ANALOG>  (509) 
Ser

>  <MOL_WT>  (509) 
119.11999999999998

>  <LOGP>  (509) 
-1.2192999999999998

>  <TPSA>  (509) 
83.55

>  <POPULARITY>  (509) 
39.9

>  <PROTECTED>  (509) 
TRUE

>  <SMILES>  (509) 
N[C@@H](CCO)C(=O)O

>  <INCHIKEY>  (509) 
UKAUYVFTDYCKQA-VKHMYHEASA-N

$$$$
Val_3OH
     RDKit          2D

  9  8  0  0  0  0  0  0  0  0999 V2000
   -0.1862    2.0800    0.0000 N   0  0  0  0  0  0  0  0  0  0  0  0
   -0.1560    0.5803    0.0000 C   0  0  0  0  0  0  0  0  0  0  0  0
    1.1578   -0.1434    0.0000 C   0  0  0  0  0  0  0  0  0  0  0  0
    2.4717   -0.8671    0.0000 O   0  0  0  0  0  0  0  0  0  0  0  0
    1.8815    1.1705    0.0000 C   0  0  0  0  0  0  0  0  0  0  0  0
    0.4341   -1.4573    0.0000 C   0  0  0  0  0  0  0  0  0  0  0  0
   -1.4397   -0.1957    0.0000 C   0  0  0  0  0  0  0  0  0  0  0  0
   -1.4095   -1.6954    0.0000 O   0  0  0  0  0  0  0  0  0  0  0  0
   -2.7536    0.5280    0.0000 O   0  0  0  0  0  0  0  0  0  0  0  0
  2  1  1  1
  2  3  1  0
  3  4  1  0
  3  5  1  0
  3  6  1  0
  2  7  1  0
  7  8  2  0
  7  9  1  0
M  END
>  <rName>  (510) 
Val_3OH

>  <PQ_SYMBOL>  (510) 
Val_3OH

>  <FULL_NAME>  (510) 
3-Hydroxy-L-Valine

>  <IUPAC_CONDENSED>  (510) 
Val(3-OH)

>  <IUPAC>  (510) 
(2S)-2-amino-3-hydroxy-3-methylbutanoic acid

>  <TYPE>  (510) 
Backbone

>  <CLASS>  (510) 
alpha

>  <ANALOG>  (510) 
Val

>  <MOL_WT>  (510) 
133.147

>  <LOGP>  (510) 
-0.8308000000000006

>  <TPSA>  (510) 
83.55

>  <POPULARITY>  (510) 
16

>  <PROTECTED>  (510) 
TRUE

>  <SMILES>  (510) 
N[C@@H](C(O)(C)C)C(=O)O

>  <INCHIKEY>  (510) 
LDRFQSZFVGJGGP-GSVOUGTGSA-N

$$$$
Gly_pent2yl_2R
     RDKit          2D

 10  9  0  0  0  0  0  0  0  0999 V2000
    1.2586    1.9934    0.0000 N   0  0  0  0  0  0  0  0  0  0  0  0
    0.6785    0.6101    0.0000 C   0  0  0  0  0  0  0  0  0  0  0  0
   -0.8096    0.4209    0.0000 C   0  0  0  0  0  0  0  0  0  0  0  0
   -0.9988    1.9089    0.0000 C   0  0  0  0  0  0  0  0  0  0  0  0
   -0.6203   -1.0672    0.0000 C   0  0  0  0  0  0  0  0  0  0  0  0
   -2.2976    0.2316    0.0000 C   0  0  0  0  0  0  0  0  0  0  0  0
   -2.8777   -1.1516    0.0000 C   0  0  0  0  0  0  0  0  0  0  0  0
    1.5863   -0.5840    0.0000 C   0  0  0  0  0  0  0  0  0  0  0  0
    1.0062   -1.9672    0.0000 O   0  0  0  0  0  0  0  0  0  0  0  0
    3.0744   -0.3947    0.0000 O   0  0  0  0  0  0  0  0  0  0  0  0
  2  1  1  6
  2  3  1  0
  3  4  1  0
  3  5  1  0
  3  6  1  0
  6  7  1  0
  2  8  1  0
  8  9  2  0
  8 10  1  0
M  END
>  <rName>  (511) 
Gly_pent2yl_2R

>  <PQ_SYMBOL>  (511) 
Gly_pent2yl_2R

>  <FULL_NAME>  (511) 
3-Methyl-L-Alloisoleucine

>  <IUPAC_CONDENSED>  (511) 
Gly(pent-2-yl(2R))

>  <IUPAC>  (511) 
(2S)-2-amino-3,3-dimethylpentanoic acid

>  <TYPE>  (511) 
Backbone

>  <CLASS>  (511) 
alpha

>  <ANALOG>  (511) 
Val

>  <MOL_WT>  (511) 
145.202

>  <LOGP>  (511) 
0.8344999999999998

>  <TPSA>  (511) 
63.32000000000001

>  <POPULARITY>  (511) 
16.4

>  <PROTECTED>  (511) 
TRUE

>  <SMILES>  (511) 
N[C@@H](C(C)(C)CC)C(=O)O

>  <INCHIKEY>  (511) 
AQIFZAKDNFZWND-RXMQYKEDSA-N

$$$$
Gly_indan2yl
     RDKit          2D

 14 15  0  0  0  0  0  0  0  0999 V2000
   -2.8664   -1.9991    0.0000 N   0  0  0  0  0  0  0  0  0  0  0  0
   -2.3059   -0.6077    0.0000 C   0  0  0  0  0  0  0  0  0  0  0  0
   -0.8208   -0.3974    0.0000 C   0  0  0  0  0  0  0  0  0  0  0  0
    0.2224   -1.4753    0.0000 C   0  0  0  0  0  0  0  0  0  0  0  0
    1.5699   -0.8163    0.0000 C   0  0  0  0  0  0  0  0  0  0  0  0
    2.9612   -1.3767    0.0000 C   0  0  0  0  0  0  0  0  0  0  0  0
    4.1423   -0.4520    0.0000 C   0  0  0  0  0  0  0  0  0  0  0  0
    3.9319    1.0332    0.0000 C   0  0  0  0  0  0  0  0  0  0  0  0
    2.5406    1.5936    0.0000 C   0  0  0  0  0  0  0  0  0  0  0  0
    1.3595    0.6689    0.0000 C   0  0  0  0  0  0  0  0  0  0  0  0
   -0.1180    0.9278    0.0000 C   0  0  0  0  0  0  0  0  0  0  0  0
   -3.2307    0.5733    0.0000 C   0  0  0  0  0  0  0  0  0  0  0  0
   -2.6702    1.9647    0.0000 O   0  0  0  0  0  0  0  0  0  0  0  0
   -4.7159    0.3630    0.0000 O   0  0  0  0  0  0  0  0  0  0  0  0
  2  1  1  6
  2  3  1  0
  3  4  1  0
  4  5  1  0
  5  6  2  0
  6  7  1  0
  7  8  2  0
  8  9  1  0
  9 10  2  0
 10 11  1  0
  2 12  1  0
 12 13  2  0
 12 14  1  0
 10  5  1  0
 11  3  1  0
M  END
>  <rName>  (512) 
Gly_indan2yl

>  <PQ_SYMBOL>  (512) 
Gly_indan2yl

>  <FULL_NAME>  (512) 
L-2-Indanylglycine

>  <IUPAC_CONDENSED>  (512) 
Gly(indan-2-yl)

>  <IUPAC>  (512) 
(2S)-2-amino-2-(indan-2-yl)acetic acid

>  <TYPE>  (512) 
Backbone

>  <CLASS>  (512) 
alpha

>  <ANALOG>  (512) 
Phe

>  <MOL_WT>  (512) 
191.22999999999996

>  <LOGP>  (512) 
0.8132999999999999

>  <TPSA>  (512) 
63.32000000000001

>  <POPULARITY>  (512) 
13.9

>  <PROTECTED>  (512) 
TRUE

>  <SMILES>  (512) 
N[C@@H](C2(Cc1(ccccc1C2)))C(=O)O

>  <INCHIKEY>  (512) 
GUDHMDVRURNAHL-JTQLQIEISA-N

$$$$
Asp_Ph_2NH2
     RDKit          2D

 15 15  0  0  0  0  0  0  0  0999 V2000
   -2.7298   -1.7488    0.0000 N   0  0  0  0  0  0  0  0  0  0  0  0
   -2.5580   -0.2586    0.0000 C   0  0  0  0  0  0  0  0  0  0  0  0
   -1.1815    0.3376    0.0000 C   0  0  0  0  0  0  0  0  0  0  0  0
    0.0230   -0.5563    0.0000 C   0  0  0  0  0  0  0  0  0  0  0  0
   -0.1488   -2.0464    0.0000 O   0  0  0  0  0  0  0  0  0  0  0  0
    1.3994    0.0399    0.0000 C   0  0  0  0  0  0  0  0  0  0  0  0
    1.5713    1.5300    0.0000 C   0  0  0  0  0  0  0  0  0  0  0  0
    2.9477    2.1263    0.0000 C   0  0  0  0  0  0  0  0  0  0  0  0
    4.1523    1.2324    0.0000 C   0  0  0  0  0  0  0  0  0  0  0  0
    3.9804   -0.2577    0.0000 C   0  0  0  0  0  0  0  0  0  0  0  0
    2.6040   -0.8540    0.0000 C   0  0  0  0  0  0  0  0  0  0  0  0
    2.4321   -2.3441    0.0000 N   0  0  0  0  0  0  0  0  0  0  0  0
   -3.7625    0.6353    0.0000 C   0  0  0  0  0  0  0  0  0  0  0  0
   -3.5906    2.1254    0.0000 O   0  0  0  0  0  0  0  0  0  0  0  0
   -5.1389    0.0390    0.0000 O   0  0  0  0  0  0  0  0  0  0  0  0
  2  1  1  6
  2  3  1  0
  3  4  1  0
  4  5  2  0
  4  6  1  0
  6  7  2  0
  7  8  1  0
  8  9  2  0
  9 10  1  0
 10 11  2  0
 11 12  1  0
  2 13  1  0
 13 14  2  0
 13 15  1  0
 11  6  1  0
M  END
>  <rName>  (513) 
Asp_Ph_2NH2

>  <PQ_SYMBOL>  (513) 
Asp_Ph_2NH2

>  <FULL_NAME>  (513) 
L-Kynurenine

>  <IUPAC_CONDENSED>  (513) 
Asp(Ph(2-NH2))

>  <IUPAC>  (513) 
(2S)-2-amino-4-(2-aminophenyl)-4-oxobutanoic acid

>  <TYPE>  (513) 
Backbone

>  <CLASS>  (513) 
alpha

>  <ANALOG>  (513) 
Phe

>  <MOL_WT>  (513) 
208.21699999999996

>  <LOGP>  (513) 
0.2535000000000001

>  <TPSA>  (513) 
106.41000000000001

>  <POPULARITY>  (513) 
19.3

>  <PROTECTED>  (513) 
TRUE

>  <SMILES>  (513) 
N[C@@H](CC(=O)c1(ccccc1N))C(=O)O

>  <INCHIKEY>  (513) 
YGPSJZOEDVAXAB-QMMMGPOBSA-N

$$$$
Nle_OH
     RDKit          2D

 10  9  0  0  0  0  0  0  0  0999 V2000
   -1.4166    1.8843    0.0000 N   0  0  0  0  0  0  0  0  0  0  0  0
   -1.4265    0.3844    0.0000 C   0  0  0  0  0  0  0  0  0  0  0  0
   -0.1324   -0.3741    0.0000 C   0  0  0  0  0  0  0  0  0  0  0  0
    1.1716    0.3673    0.0000 C   0  0  0  0  0  0  0  0  0  0  0  0
    2.4657   -0.3912    0.0000 C   0  0  0  0  0  0  0  0  0  0  0  0
    3.7696    0.3503    0.0000 C   0  0  0  0  0  0  0  0  0  0  0  0
    5.0637   -0.4082    0.0000 O   0  0  0  0  0  0  0  0  0  0  0  0
   -2.7304   -0.3571    0.0000 C   0  0  0  0  0  0  0  0  0  0  0  0
   -2.7402   -1.8571    0.0000 O   0  0  0  0  0  0  0  0  0  0  0  0
   -4.0245    0.4014    0.0000 O   0  0  0  0  0  0  0  0  0  0  0  0
  2  1  1  1
  2  3  1  0
  3  4  1  0
  4  5  1  0
  5  6  1  0
  6  7  1  0
  2  8  1  0
  8  9  2  0
  8 10  1  0
M  END
>  <rName>  (514) 
Nle_OH

>  <PQ_SYMBOL>  (514) 
Nle_OH

>  <FULL_NAME>  (514) 
6-Hydroxy-L-Norleucine

>  <IUPAC_CONDENSED>  (514) 
Nle(OH)

>  <IUPAC>  (514) 
(2S)-2-amino-6-hydroxyhexanoic acid

>  <TYPE>  (514) 
Backbone

>  <CLASS>  (514) 
alpha

>  <ANALOG>  (514) 
X

>  <MOL_WT>  (514) 
147.174

>  <LOGP>  (514) 
-0.43910000000000055

>  <TPSA>  (514) 
83.55

>  <POPULARITY>  (514) 
13.5

>  <PROTECTED>  (514) 
TRUE

>  <SMILES>  (514) 
N[C@@H](CCCCO)C(=O)O

>  <INCHIKEY>  (514) 
OLUWXTFAPJJWPL-YFKPBYRVSA-N

$$$$
Pen
     RDKit          2D

  9  8  0  0  0  0  0  0  0  0999 V2000
   -0.1862    2.0800    0.0000 N   0  0  0  0  0  0  0  0  0  0  0  0
   -0.1560    0.5803    0.0000 C   0  0  0  0  0  0  0  0  0  0  0  0
    1.1578   -0.1434    0.0000 C   0  0  0  0  0  0  0  0  0  0  0  0
    1.8815    1.1705    0.0000 C   0  0  0  0  0  0  0  0  0  0  0  0
    0.4341   -1.4573    0.0000 C   0  0  0  0  0  0  0  0  0  0  0  0
    2.4717   -0.8671    0.0000 S   0  0  0  0  0  0  0  0  0  0  0  0
   -1.4397   -0.1957    0.0000 C   0  0  0  0  0  0  0  0  0  0  0  0
   -1.4095   -1.6954    0.0000 O   0  0  0  0  0  0  0  0  0  0  0  0
   -2.7536    0.5280    0.0000 O   0  0  0  0  0  0  0  0  0  0  0  0
  2  1  1  1
  2  3  1  0
  3  4  1  0
  3  5  1  0
  3  6  1  0
  2  7  1  0
  7  8  2  0
  7  9  1  0
M  END
>  <rName>  (515) 
Pen

>  <PQ_SYMBOL>  (515) 
Pen

>  <FULL_NAME>  (515) 
L-Penicillamine

>  <IUPAC_CONDENSED>  (515) 
Pen

>  <IUPAC>  (515) 
(2R)-2-amino-3-methyl-3-sulfanylbutanoic acid

>  <TYPE>  (515) 
Backbone

>  <CLASS>  (515) 
alpha

>  <ANALOG>  (515) 
Val

>  <MOL_WT>  (515) 
149.215

>  <LOGP>  (515) 
0.1066999999999998

>  <TPSA>  (515) 
63.32000000000001

>  <POPULARITY>  (515) 
38.1

>  <PROTECTED>  (515) 
TRUE

>  <SMILES>  (515) 
N[C@@H](C(C)(C)S)C(=O)O

>  <INCHIKEY>  (515) 
VVNCNSJFMMFHPL-GSVOUGTGSA-N

$$$$
Gly_CF3_CO2H
     RDKit          2D

 12 11  0  0  0  0  0  0  0  0999 V2000
   -0.0000    2.0136    0.0000 N   0  0  0  0  0  0  0  0  0  0  0  0
   -0.0000    0.5136    0.0000 C   0  0  0  0  0  0  0  0  0  0  0  0
   -1.5000    0.5136    0.0000 C   0  0  0  0  0  0  0  0  0  0  0  0
   -2.4028   -0.6843    0.0000 O   0  0  0  0  0  0  0  0  0  0  0  0
   -2.2500    1.8127    0.0000 O   0  0  0  0  0  0  0  0  0  0  0  0
    0.0000   -0.9864    0.0000 C   0  0  0  0  0  0  0  0  0  0  0  0
    0.0000   -2.4864    0.0000 F   0  0  0  0  0  0  0  0  0  0  0  0
   -1.4888   -1.1692    0.0000 F   0  0  0  0  0  0  0  0  0  0  0  0
    1.4888   -1.1692    0.0000 F   0  0  0  0  0  0  0  0  0  0  0  0
    1.5000    0.5136    0.0000 C   0  0  0  0  0  0  0  0  0  0  0  0
    2.4028   -0.6843    0.0000 O   0  0  0  0  0  0  0  0  0  0  0  0
    2.2500    1.8127    0.0000 O   0  0  0  0  0  0  0  0  0  0  0  0
  1  2  1  0
  2  3  1  0
  3  4  2  0
  3  5  1  0
  2  6  1  0
  6  7  1  0
  6  8  1  0
  6  9  1  0
  2 10  1  0
 10 11  2  0
 10 12  1  0
M  END
>  <rName>  (516) 
Gly_CF3_CO2H

>  <PQ_SYMBOL>  (516) 
Gly_CF3_CO2H

>  <FULL_NAME>  (516) 
2-Alpha-Carboxy-(3,3,3-Trifluoro)-L-Alanine

>  <IUPAC_CONDENSED>  (516) 
Gly(CF3,CO2H)

>  <IUPAC>  (516) 
2-amino-2-(trifluoromethyl)malonic acid

>  <TYPE>  (516) 
Backbone

>  <CLASS>  (516) 
alpha

>  <ANALOG>  (516) 
X

>  <MOL_WT>  (516) 
187.073

>  <LOGP>  (516) 
-0.5846

>  <TPSA>  (516) 
100.62000000000002

>  <POPULARITY>  (516) 
0.6

>  <PROTECTED>  (516) 
FALSE

>  <SMILES>  (516) 
NC(C(=O)O)(C(F)(F)F)C(=O)O

>  <INCHIKEY>  (516) 
CNSZRAUOSJANBF-UHFFFAOYSA-N

$$$$
D-Gly_CF3_CO2H
     RDKit          2D

 12 11  0  0  0  0  0  0  0  0999 V2000
   -0.0000    2.0136    0.0000 N   0  0  0  0  0  0  0  0  0  0  0  0
   -0.0000    0.5136    0.0000 C   0  0  0  0  0  0  0  0  0  0  0  0
   -1.5000    0.5136    0.0000 C   0  0  0  0  0  0  0  0  0  0  0  0
   -2.4028   -0.6843    0.0000 O   0  0  0  0  0  0  0  0  0  0  0  0
   -2.2500    1.8127    0.0000 O   0  0  0  0  0  0  0  0  0  0  0  0
    0.0000   -0.9864    0.0000 C   0  0  0  0  0  0  0  0  0  0  0  0
    0.0000   -2.4864    0.0000 F   0  0  0  0  0  0  0  0  0  0  0  0
   -1.4888   -1.1692    0.0000 F   0  0  0  0  0  0  0  0  0  0  0  0
    1.4888   -1.1692    0.0000 F   0  0  0  0  0  0  0  0  0  0  0  0
    1.5000    0.5136    0.0000 C   0  0  0  0  0  0  0  0  0  0  0  0
    2.4028   -0.6843    0.0000 O   0  0  0  0  0  0  0  0  0  0  0  0
    2.2500    1.8127    0.0000 O   0  0  0  0  0  0  0  0  0  0  0  0
  1  2  1  0
  2  3  1  0
  3  4  2  0
  3  5  1  0
  2  6  1  0
  6  7  1  0
  6  8  1  0
  6  9  1  0
  2 10  1  0
 10 11  2  0
 10 12  1  0
M  END
>  <rName>  (517) 
D-Gly_CF3_CO2H

>  <PQ_SYMBOL>  (517) 
D-Gly_CF3_CO2H

>  <FULL_NAME>  (517) 
2-Alpha-Carboxy-(3,3,3-Trifluoro)-D-Alanine

>  <IUPAC_CONDENSED>  (517) 
D-Gly(CF3,CO2H)

>  <IUPAC>  (517) 
2-amino-2-(trifluoromethyl)malonic acid

>  <TYPE>  (517) 
Backbone

>  <CLASS>  (517) 
alpha

>  <ANALOG>  (517) 
X

>  <MOL_WT>  (517) 
187.073

>  <LOGP>  (517) 
-0.5846

>  <TPSA>  (517) 
100.62000000000002

>  <POPULARITY>  (517) 
0.6

>  <PROTECTED>  (517) 
FALSE

>  <SMILES>  (517) 
NC(C(=O)O)(C(F)(F)F)C(=O)O

>  <INCHIKEY>  (517) 
CNSZRAUOSJANBF-UHFFFAOYSA-N

$$$$
Met_S3F
     RDKit          2D

 12 11  0  0  0  0  0  0  0  0999 V2000
   -1.9172   -1.8446    0.0000 N   0  0  0  0  0  0  0  0  0  0  0  0
   -2.0356   -0.3492    0.0000 C   0  0  0  0  0  0  0  0  0  0  0  0
   -0.7998    0.5009    0.0000 C   0  0  0  0  0  0  0  0  0  0  0  0
    0.5544   -0.1442    0.0000 C   0  0  0  0  0  0  0  0  0  0  0  0
    1.7902    0.7060    0.0000 S   0  0  0  0  0  0  0  0  0  0  0  0
    3.1443    0.0608    0.0000 C   0  0  0  0  0  0  0  0  0  0  0  0
    3.7895    1.4150    0.0000 F   0  0  0  0  0  0  0  0  0  0  0  0
    2.4992   -1.2933    0.0000 F   0  0  0  0  0  0  0  0  0  0  0  0
    4.4985   -0.5843    0.0000 F   0  0  0  0  0  0  0  0  0  0  0  0
   -3.3898    0.2959    0.0000 C   0  0  0  0  0  0  0  0  0  0  0  0
   -3.5082    1.7912    0.0000 O   0  0  0  0  0  0  0  0  0  0  0  0
   -4.6256   -0.5543    0.0000 O   0  0  0  0  0  0  0  0  0  0  0  0
  2  1  1  6
  2  3  1  0
  3  4  1  0
  4  5  1  0
  5  6  1  0
  6  7  1  0
  6  8  1  0
  6  9  1  0
  2 10  1  0
 10 11  2  0
 10 12  1  0
M  END
>  <rName>  (518) 
Met_S3F

>  <PQ_SYMBOL>  (518) 
Met_S3F

>  <FULL_NAME>  (518) 
Trifluoro-L-Methionine

>  <IUPAC_CONDENSED>  (518) 
Met(S-3F)

>  <IUPAC>  (518) 
(2S)-2-amino-4-((trifluoromethyl)sulfanyl)butanoic acid

>  <TYPE>  (518) 
Backbone

>  <CLASS>  (518) 
alpha

>  <ANALOG>  (518) 
Met

>  <MOL_WT>  (518) 
203.18499999999997

>  <LOGP>  (518) 
1.0414

>  <TPSA>  (518) 
63.32000000000001

>  <POPULARITY>  (518) 
8.3

>  <PROTECTED>  (518) 
TRUE

>  <SMILES>  (518) 
N[C@@H](CCSC(F)(F)F)C(=O)O

>  <INCHIKEY>  (518) 
YLJLTSVBCXYTQK-VKHMYHEASA-N

$$$$
Trp_5F
     RDKit          2D

 16 17  0  0  0  0  0  0  0  0999 V2000
   -3.0564   -1.5854    0.0000 N   0  0  0  0  0  0  0  0  0  0  0  0
   -2.8364   -0.1016    0.0000 C   0  0  0  0  0  0  0  0  0  0  0  0
   -1.4415    0.4499    0.0000 C   0  0  0  0  0  0  0  0  0  0  0  0
   -0.2664   -0.4825    0.0000 C   0  0  0  0  0  0  0  0  0  0  0  0
   -0.3301   -1.9811    0.0000 C   0  0  0  0  0  0  0  0  0  0  0  0
    1.0756   -2.5048    0.0000 N   0  0  0  0  0  0  0  0  0  0  0  0
    2.0079   -1.3297    0.0000 C   0  0  0  0  0  0  0  0  0  0  0  0
    3.5050   -1.2364    0.0000 C   0  0  0  0  0  0  0  0  0  0  0  0
    4.1727    0.1068    0.0000 C   0  0  0  0  0  0  0  0  0  0  0  0
    3.3433    1.3567    0.0000 C   0  0  0  0  0  0  0  0  0  0  0  0
    4.0110    2.6999    0.0000 F   0  0  0  0  0  0  0  0  0  0  0  0
    1.8462    1.2633    0.0000 C   0  0  0  0  0  0  0  0  0  0  0  0
    1.1785   -0.0799    0.0000 C   0  0  0  0  0  0  0  0  0  0  0  0
   -4.0115    0.8308    0.0000 C   0  0  0  0  0  0  0  0  0  0  0  0
   -3.7915    2.3146    0.0000 O   0  0  0  0  0  0  0  0  0  0  0  0
   -5.4064    0.2794    0.0000 O   0  0  0  0  0  0  0  0  0  0  0  0
  2  1  1  6
  2  3  1  0
  3  4  1  0
  4  5  2  0
  5  6  1  0
  6  7  1  0
  7  8  1  0
  8  9  2  0
  9 10  1  0
 10 11  1  0
 10 12  2  0
 12 13  1  0
  2 14  1  0
 14 15  2  0
 14 16  1  0
 13  4  1  0
 13  7  2  0
M  END
>  <rName>  (519) 
Trp_5F

>  <PQ_SYMBOL>  (519) 
Trp_5F

>  <FULL_NAME>  (519) 
5-Fluoro-L-Tryptophan

>  <IUPAC_CONDENSED>  (519) 
Trp(5-F)

>  <IUPAC>  (519) 
(2S)-2-amino-3-(5-fluoro-1H-indol-3-yl)propanoic acid

>  <TYPE>  (519) 
Backbone

>  <CLASS>  (519) 
alpha

>  <ANALOG>  (519) 
Trp

>  <MOL_WT>  (519) 
222.21899999999997

>  <LOGP>  (519) 
1.2614000000000003

>  <TPSA>  (519) 
79.11

>  <POPULARITY>  (519) 
29.7

>  <PROTECTED>  (519) 
TRUE

>  <SMILES>  (519) 
N[C@@H](Cc1(c[nH]c2(ccc(F)cc12)))C(=O)O

>  <INCHIKEY>  (519) 
INPQIVHQSQUEAJ-VIFPVBQESA-N

$$$$
Trp_2Me
     RDKit          2D

 16 17  0  0  0  0  0  0  0  0999 V2000
   -2.5941   -1.4623    0.0000 N   0  0  0  0  0  0  0  0  0  0  0  0
   -2.4986    0.0347    0.0000 C   0  0  0  0  0  0  0  0  0  0  0  0
   -1.1544    0.7005    0.0000 C   0  0  0  0  0  0  0  0  0  0  0  0
    0.0942   -0.1307    0.0000 C   0  0  0  0  0  0  0  0  0  0  0  0
    0.1557   -1.6294    0.0000 C   0  0  0  0  0  0  0  0  0  0  0  0
   -1.0206   -2.5601    0.0000 C   0  0  0  0  0  0  0  0  0  0  0  0
    1.6001   -2.0341    0.0000 N   0  0  0  0  0  0  0  0  0  0  0  0
    2.4313   -0.7854    0.0000 C   0  0  0  0  0  0  0  0  0  0  0  0
    3.9154   -0.5676    0.0000 C   0  0  0  0  0  0  0  0  0  0  0  0
    4.4688    0.8266    0.0000 C   0  0  0  0  0  0  0  0  0  0  0  0
    3.5381    2.0030    0.0000 C   0  0  0  0  0  0  0  0  0  0  0  0
    2.0540    1.7851    0.0000 C   0  0  0  0  0  0  0  0  0  0  0  0
    1.5006    0.3909    0.0000 C   0  0  0  0  0  0  0  0  0  0  0  0
   -3.7473    0.8659    0.0000 C   0  0  0  0  0  0  0  0  0  0  0  0
   -3.6518    2.3628    0.0000 O   0  0  0  0  0  0  0  0  0  0  0  0
   -5.0914    0.2001    0.0000 O   0  0  0  0  0  0  0  0  0  0  0  0
  2  1  1  6
  2  3  1  0
  3  4  1  0
  4  5  2  0
  5  6  1  0
  5  7  1  0
  7  8  1  0
  8  9  2  0
  9 10  1  0
 10 11  2  0
 11 12  1  0
 12 13  2  0
  2 14  1  0
 14 15  2  0
 14 16  1  0
 13  4  1  0
 13  8  1  0
M  END
>  <rName>  (520) 
Trp_2Me

>  <PQ_SYMBOL>  (520) 
Trp_2Me

>  <FULL_NAME>  (520) 
2-Methyl-L-Tryptophan

>  <IUPAC_CONDENSED>  (520) 
Trp(2-Me)

>  <IUPAC>  (520) 
(2S)-2-amino-3-(2-methyl-1H-indol-3-yl)propanoic acid

>  <TYPE>  (520) 
Backbone

>  <CLASS>  (520) 
alpha

>  <ANALOG>  (520) 
Trp

>  <MOL_WT>  (520) 
218.256

>  <LOGP>  (520) 
1.4307200000000002

>  <TPSA>  (520) 
79.11

>  <POPULARITY>  (520) 
14.3

>  <PROTECTED>  (520) 
TRUE

>  <SMILES>  (520) 
N[C@@H](Cc1(c(C)[nH]c2(ccccc12)))C(=O)O

>  <INCHIKEY>  (520) 
BXJSOEWOQDVGJW-JTQLQIEISA-N

$$$$
Gly_vinyl
     RDKit          2D

  7  6  0  0  0  0  0  0  0  0999 V2000
   -0.5797   -1.7367    0.0000 N   0  0  0  0  0  0  0  0  0  0  0  0
   -0.2514   -0.2730    0.0000 C   0  0  0  0  0  0  0  0  0  0  0  0
   -1.3548    0.7431    0.0000 C   0  0  0  0  0  0  0  0  0  0  0  0
   -2.7865    0.2956    0.0000 C   0  0  0  0  0  0  0  0  0  0  0  0
    1.1803    0.1745    0.0000 C   0  0  0  0  0  0  0  0  0  0  0  0
    1.5086    1.6381    0.0000 O   0  0  0  0  0  0  0  0  0  0  0  0
    2.2837   -0.8417    0.0000 O   0  0  0  0  0  0  0  0  0  0  0  0
  2  1  1  1
  2  3  1  0
  3  4  2  0
  2  5  1  0
  5  6  2  0
  5  7  1  0
M  END
>  <rName>  (521) 
Gly_vinyl

>  <PQ_SYMBOL>  (521) 
Gly_vinyl

>  <FULL_NAME>  (521) 
L-Vinylglycine

>  <IUPAC_CONDENSED>  (521) 
Gly(vinyl)

>  <IUPAC>  (521) 
(2S)-2-aminobut-3-enoic acid

>  <TYPE>  (521) 
Backbone

>  <CLASS>  (521) 
alpha

>  <ANALOG>  (521) 
Ala

>  <MOL_WT>  (521) 
101.10499999999999

>  <LOGP>  (521) 
-0.41570000000000024

>  <TPSA>  (521) 
63.32000000000001

>  <POPULARITY>  (521) 
13.9

>  <PROTECTED>  (521) 
TRUE

>  <SMILES>  (521) 
N[C@@H](C=C)C(=O)O

>  <INCHIKEY>  (521) 
RQVLGLPAZTUBKX-VKHMYHEASA-N

$$$$
Gln_Me
     RDKit          2D

 11 10  0  0  0  0  0  0  0  0999 V2000
    1.7502    1.9632    0.0000 N   0  0  0  0  0  0  0  0  0  0  0  0
    1.6777    0.4649    0.0000 C   0  0  0  0  0  0  0  0  0  0  0  0
    0.3440   -0.2214    0.0000 C   0  0  0  0  0  0  0  0  0  0  0  0
   -0.9173    0.5905    0.0000 C   0  0  0  0  0  0  0  0  0  0  0  0
   -2.2511   -0.0959    0.0000 C   0  0  0  0  0  0  0  0  0  0  0  0
   -2.3235   -1.5941    0.0000 O   0  0  0  0  0  0  0  0  0  0  0  0
   -3.5123    0.7160    0.0000 N   0  0  0  0  0  0  0  0  0  0  0  0
   -4.8461    0.0297    0.0000 C   0  0  0  0  0  0  0  0  0  0  0  0
    2.9390   -0.3470    0.0000 C   0  0  0  0  0  0  0  0  0  0  0  0
    2.8665   -1.8452    0.0000 O   0  0  0  0  0  0  0  0  0  0  0  0
    4.2728    0.3394    0.0000 O   0  0  0  0  0  0  0  0  0  0  0  0
  2  1  1  6
  2  3  1  0
  3  4  1  0
  4  5  1  0
  5  6  2  0
  5  7  1  0
  7  8  1  0
  2  9  1  0
  9 10  2  0
  9 11  1  0
M  END
>  <rName>  (522) 
Gln_Me

>  <PQ_SYMBOL>  (522) 
Gln_Me

>  <FULL_NAME>  (522) 
N5-Methyl-L-Glutamine

>  <IUPAC_CONDENSED>  (522) 
Gln(Me)

>  <IUPAC>  (522) 
(2S)-2-amino-4-(methylcarbamoyl)butanoic acid

>  <TYPE>  (522) 
Backbone

>  <CLASS>  (522) 
alpha

>  <ANALOG>  (522) 
Gln

>  <MOL_WT>  (522) 
160.173

>  <LOGP>  (522) 
-1.0755

>  <TPSA>  (522) 
92.42

>  <POPULARITY>  (522) 
35.8

>  <PROTECTED>  (522) 
TRUE

>  <SMILES>  (522) 
N[C@@H](CCC(=O)NC)C(=O)O

>  <INCHIKEY>  (522) 
ONXPDKGXOOORHB-BYPYZUCNSA-N

$$$$
Met_O
     RDKit          2D

 10  9  0  0  0  0  0  0  0  0999 V2000
   -1.2717    1.9622    0.0000 N   0  0  0  0  0  0  0  0  0  0  0  0
   -1.1946    0.4642    0.0000 C   0  0  0  0  0  0  0  0  0  0  0  0
    0.1413   -0.2180    0.0000 C   0  0  0  0  0  0  0  0  0  0  0  0
    1.4001    0.5978    0.0000 C   0  0  0  0  0  0  0  0  0  0  0  0
    2.7359   -0.0845    0.0000 S   0  0  0  0  0  0  0  0  0  0  0  0
    2.8131   -1.5825    0.0000 O   0  0  0  0  0  0  0  0  0  0  0  0
    3.9947    0.7313    0.0000 C   0  0  0  0  0  0  0  0  0  0  0  0
   -2.4533   -0.3516    0.0000 C   0  0  0  0  0  0  0  0  0  0  0  0
   -2.3762   -1.8496    0.0000 O   0  0  0  0  0  0  0  0  0  0  0  0
   -3.7892    0.3306    0.0000 O   0  0  0  0  0  0  0  0  0  0  0  0
  2  1  1  1
  2  3  1  0
  3  4  1  0
  4  5  1  0
  5  6  2  0
  5  7  1  0
  2  8  1  0
  8  9  2  0
  8 10  1  0
M  END
>  <rName>  (523) 
Met_O

>  <PQ_SYMBOL>  (523) 
Met_O

>  <FULL_NAME>  (523) 
L-Methionine Sulfoxide

>  <IUPAC_CONDENSED>  (523) 
Met(O)

>  <IUPAC>  (523) 
(2S)-2-amino-4-(methylsulfinyl)butanoic acid

>  <TYPE>  (523) 
Backbone

>  <CLASS>  (523) 
alpha

>  <ANALOG>  (523) 
Met

>  <MOL_WT>  (523) 
165.214

>  <LOGP>  (523) 
-0.8331000000000004

>  <TPSA>  (523) 
80.39

>  <POPULARITY>  (523) 
20.3

>  <PROTECTED>  (523) 
TRUE

>  <SMILES>  (523) 
N[C@@H](CCS(=O)C)C(=O)O

>  <INCHIKEY>  (523) 
QEFRNWWLZKMPFJ-YGVKFDHGSA-N

$$$$
Trp_5OMe
     RDKit          2D

 17 18  0  0  0  0  0  0  0  0999 V2000
   -3.5469   -1.3812    0.0000 N   0  0  0  0  0  0  0  0  0  0  0  0
   -3.1708    0.0709    0.0000 C   0  0  0  0  0  0  0  0  0  0  0  0
   -1.7252    0.4712    0.0000 C   0  0  0  0  0  0  0  0  0  0  0  0
   -0.6557   -0.5805    0.0000 C   0  0  0  0  0  0  0  0  0  0  0  0
   -0.8780   -2.0640    0.0000 C   0  0  0  0  0  0  0  0  0  0  0  0
    0.4642   -2.7337    0.0000 N   0  0  0  0  0  0  0  0  0  0  0  0
    1.5159   -1.6643    0.0000 C   0  0  0  0  0  0  0  0  0  0  0  0
    3.0145   -1.7302    0.0000 C   0  0  0  0  0  0  0  0  0  0  0  0
    3.8209   -0.4654    0.0000 C   0  0  0  0  0  0  0  0  0  0  0  0
    3.1288    0.8653    0.0000 C   0  0  0  0  0  0  0  0  0  0  0  0
    3.9352    2.1301    0.0000 O   0  0  0  0  0  0  0  0  0  0  0  0
    5.4337    2.0641    0.0000 C   0  0  0  0  0  0  0  0  0  0  0  0
    1.6302    0.9313    0.0000 C   0  0  0  0  0  0  0  0  0  0  0  0
    0.8238   -0.3335    0.0000 C   0  0  0  0  0  0  0  0  0  0  0  0
   -4.2403    1.1227    0.0000 C   0  0  0  0  0  0  0  0  0  0  0  0
   -3.8642    2.5748    0.0000 O   0  0  0  0  0  0  0  0  0  0  0  0
   -5.6859    0.7223    0.0000 O   0  0  0  0  0  0  0  0  0  0  0  0
  2  1  1  6
  2  3  1  0
  3  4  1  0
  4  5  2  0
  5  6  1  0
  6  7  1  0
  7  8  1  0
  8  9  2  0
  9 10  1  0
 10 11  1  0
 11 12  1  0
 10 13  2  0
 13 14  1  0
  2 15  1  0
 15 16  2  0
 15 17  1  0
 14  7  2  0
 14  4  1  0
M  END
>  <rName>  (524) 
Trp_5OMe

>  <PQ_SYMBOL>  (524) 
Trp_5OMe

>  <FULL_NAME>  (524) 
5-Methoxy-L-Tryptophan

>  <IUPAC_CONDENSED>  (524) 
Trp(5-OMe)

>  <IUPAC>  (524) 
(2S)-2-amino-3-(5-methoxy-1H-indol-3-yl)propanoic acid

>  <TYPE>  (524) 
Backbone

>  <CLASS>  (524) 
alpha

>  <ANALOG>  (524) 
Trp

>  <MOL_WT>  (524) 
234.25499999999997

>  <LOGP>  (524) 
1.1309

>  <TPSA>  (524) 
88.34000000000002

>  <POPULARITY>  (524) 
7.9

>  <PROTECTED>  (524) 
TRUE

>  <SMILES>  (524) 
N[C@@H](Cc2(c[nH]c1(ccc(OC)cc12)))C(=O)O

>  <INCHIKEY>  (524) 
KVNPSKDDJARYKK-JTQLQIEISA-N

$$$$
Phe_34diMe
     RDKit          2D

 14 14  0  0  0  0  0  0  0  0999 V2000
   -2.0094    1.6916    0.0000 N   0  0  0  0  0  0  0  0  0  0  0  0
   -2.3243    0.2250    0.0000 C   0  0  0  0  0  0  0  0  0  0  0  0
   -1.2116   -0.7809    0.0000 C   0  0  0  0  0  0  0  0  0  0  0  0
    0.2159   -0.3203    0.0000 C   0  0  0  0  0  0  0  0  0  0  0  0
    0.5308    1.1463    0.0000 C   0  0  0  0  0  0  0  0  0  0  0  0
    1.9583    1.6069    0.0000 C   0  0  0  0  0  0  0  0  0  0  0  0
    3.0710    0.6009    0.0000 C   0  0  0  0  0  0  0  0  0  0  0  0
    4.4985    1.0615    0.0000 C   0  0  0  0  0  0  0  0  0  0  0  0
    2.7561   -0.8657    0.0000 C   0  0  0  0  0  0  0  0  0  0  0  0
    3.8688   -1.8716    0.0000 C   0  0  0  0  0  0  0  0  0  0  0  0
    1.3286   -1.3263    0.0000 C   0  0  0  0  0  0  0  0  0  0  0  0
   -3.7518   -0.2356    0.0000 C   0  0  0  0  0  0  0  0  0  0  0  0
   -4.0666   -1.7022    0.0000 O   0  0  0  0  0  0  0  0  0  0  0  0
   -4.8644    0.7704    0.0000 O   0  0  0  0  0  0  0  0  0  0  0  0
  2  1  1  1
  2  3  1  0
  3  4  1  0
  4  5  1  0
  5  6  2  0
  6  7  1  0
  7  8  1  0
  7  9  2  0
  9 10  1  0
  9 11  1  0
  2 12  1  0
 12 13  2  0
 12 14  1  0
 11  4  2  0
M  END
>  <rName>  (525) 
Phe_34diMe

>  <PQ_SYMBOL>  (525) 
Phe_34diMe

>  <FULL_NAME>  (525) 
3,4-Dimethyl-L-Phenylalanine

>  <IUPAC_CONDENSED>  (525) 
Phe(3,4-diMe)

>  <IUPAC>  (525) 
(2S)-2-amino-3-(3,4-dimethylphenyl)propanoic acid

>  <TYPE>  (525) 
Backbone

>  <CLASS>  (525) 
alpha

>  <ANALOG>  (525) 
Phe

>  <MOL_WT>  (525) 
193.24599999999998

>  <LOGP>  (525) 
1.25784

>  <TPSA>  (525) 
63.32000000000001

>  <POPULARITY>  (525) 
7.3

>  <PROTECTED>  (525) 
TRUE

>  <SMILES>  (525) 
N[C@@H](Cc1(ccc(C)c(C)c1))C(=O)O

>  <INCHIKEY>  (525) 
PHTDECHKNDJYMG-JTQLQIEISA-N

$$$$
Phe_2Me
     RDKit          2D

 13 13  0  0  0  0  0  0  0  0999 V2000
   -1.4864    1.8099    0.0000 N   0  0  0  0  0  0  0  0  0  0  0  0
   -1.7669    0.3364    0.0000 C   0  0  0  0  0  0  0  0  0  0  0  0
   -0.6311   -0.6433    0.0000 C   0  0  0  0  0  0  0  0  0  0  0  0
    0.7853   -0.1495    0.0000 C   0  0  0  0  0  0  0  0  0  0  0  0
    1.0658    1.3241    0.0000 C   0  0  0  0  0  0  0  0  0  0  0  0
    2.4822    1.8179    0.0000 C   0  0  0  0  0  0  0  0  0  0  0  0
    3.6181    0.8382    0.0000 C   0  0  0  0  0  0  0  0  0  0  0  0
    3.3376   -0.6353    0.0000 C   0  0  0  0  0  0  0  0  0  0  0  0
    1.9212   -1.1292    0.0000 C   0  0  0  0  0  0  0  0  0  0  0  0
    1.6407   -2.6027    0.0000 C   0  0  0  0  0  0  0  0  0  0  0  0
   -3.1833   -0.1575    0.0000 C   0  0  0  0  0  0  0  0  0  0  0  0
   -3.4638   -1.6310    0.0000 O   0  0  0  0  0  0  0  0  0  0  0  0
   -4.3192    0.8222    0.0000 O   0  0  0  0  0  0  0  0  0  0  0  0
  2  1  1  1
  2  3  1  0
  3  4  1  0
  4  5  2  0
  5  6  1  0
  6  7  2  0
  7  8  1  0
  8  9  2  0
  9 10  1  0
  2 11  1  0
 11 12  2  0
 11 13  1  0
  9  4  1  0
M  END
>  <rName>  (526) 
Phe_2Me

>  <PQ_SYMBOL>  (526) 
Phe_2Me

>  <FULL_NAME>  (526) 
2-Methyl-L-Phenylalanine

>  <IUPAC_CONDENSED>  (526) 
Phe(2-Me)

>  <IUPAC>  (526) 
(2S)-2-amino-3-(2-methylphenyl)propanoic acid

>  <TYPE>  (526) 
Backbone

>  <CLASS>  (526) 
alpha

>  <ANALOG>  (526) 
Phe

>  <MOL_WT>  (526) 
179.21899999999997

>  <LOGP>  (526) 
0.9494199999999999

>  <TPSA>  (526) 
63.32000000000001

>  <POPULARITY>  (526) 
22

>  <PROTECTED>  (526) 
TRUE

>  <SMILES>  (526) 
N[C@@H](Cc1(ccccc1C))C(=O)O

>  <INCHIKEY>  (526) 
NHBKDLSKDKUGSB-VIFPVBQESA-N

$$$$
Trp_5Me
     RDKit          2D

 16 17  0  0  0  0  0  0  0  0999 V2000
   -3.0564   -1.5854    0.0000 N   0  0  0  0  0  0  0  0  0  0  0  0
   -2.8364   -0.1016    0.0000 C   0  0  0  0  0  0  0  0  0  0  0  0
   -1.4415    0.4499    0.0000 C   0  0  0  0  0  0  0  0  0  0  0  0
   -0.2664   -0.4825    0.0000 C   0  0  0  0  0  0  0  0  0  0  0  0
   -0.3301   -1.9811    0.0000 C   0  0  0  0  0  0  0  0  0  0  0  0
    1.0756   -2.5048    0.0000 N   0  0  0  0  0  0  0  0  0  0  0  0
    2.0079   -1.3297    0.0000 C   0  0  0  0  0  0  0  0  0  0  0  0
    3.5050   -1.2364    0.0000 C   0  0  0  0  0  0  0  0  0  0  0  0
    4.1727    0.1068    0.0000 C   0  0  0  0  0  0  0  0  0  0  0  0
    3.3433    1.3567    0.0000 C   0  0  0  0  0  0  0  0  0  0  0  0
    4.0110    2.6999    0.0000 C   0  0  0  0  0  0  0  0  0  0  0  0
    1.8462    1.2633    0.0000 C   0  0  0  0  0  0  0  0  0  0  0  0
    1.1785   -0.0799    0.0000 C   0  0  0  0  0  0  0  0  0  0  0  0
   -4.0115    0.8308    0.0000 C   0  0  0  0  0  0  0  0  0  0  0  0
   -3.7915    2.3146    0.0000 O   0  0  0  0  0  0  0  0  0  0  0  0
   -5.4064    0.2794    0.0000 O   0  0  0  0  0  0  0  0  0  0  0  0
  2  1  1  6
  2  3  1  0
  3  4  1  0
  4  5  2  0
  5  6  1  0
  6  7  1  0
  7  8  1  0
  8  9  2  0
  9 10  1  0
 10 11  1  0
 10 12  2  0
 12 13  1  0
  2 14  1  0
 14 15  2  0
 14 16  1  0
 13  4  1  0
 13  7  2  0
M  END
>  <rName>  (527) 
Trp_5Me

>  <PQ_SYMBOL>  (527) 
Trp_5Me

>  <FULL_NAME>  (527) 
5-Methyl-L-Tryptophan

>  <IUPAC_CONDENSED>  (527) 
Trp(5-Me)

>  <IUPAC>  (527) 
(2S)-2-amino-3-(5-methyl-1H-indol-3-yl)propanoic acid

>  <TYPE>  (527) 
Backbone

>  <CLASS>  (527) 
alpha

>  <ANALOG>  (527) 
Trp

>  <MOL_WT>  (527) 
218.25599999999997

>  <LOGP>  (527) 
1.4307200000000002

>  <TPSA>  (527) 
79.11

>  <POPULARITY>  (527) 
11.3

>  <PROTECTED>  (527) 
TRUE

>  <SMILES>  (527) 
N[C@@H](Cc1(c[nH]c2(ccc(C)cc12)))C(=O)O

>  <INCHIKEY>  (527) 
HUNCSWANZMJLPM-JTQLQIEISA-N

$$$$
Trp_6Me
     RDKit          2D

 16 17  0  0  0  0  0  0  0  0999 V2000
   -3.0545   -1.6426    0.0000 N   0  0  0  0  0  0  0  0  0  0  0  0
   -2.9369   -0.1473    0.0000 C   0  0  0  0  0  0  0  0  0  0  0  0
   -1.5831    0.4986    0.0000 C   0  0  0  0  0  0  0  0  0  0  0  0
   -0.3468   -0.3509    0.0000 C   0  0  0  0  0  0  0  0  0  0  0  0
   -0.3075   -1.8504    0.0000 C   0  0  0  0  0  0  0  0  0  0  0  0
    1.1308   -2.2763    0.0000 N   0  0  0  0  0  0  0  0  0  0  0  0
    1.9803   -1.0400    0.0000 C   0  0  0  0  0  0  0  0  0  0  0  0
    3.4675   -0.8441    0.0000 C   0  0  0  0  0  0  0  0  0  0  0  0
    4.0414    0.5417    0.0000 C   0  0  0  0  0  0  0  0  0  0  0  0
    5.5285    0.7376    0.0000 C   0  0  0  0  0  0  0  0  0  0  0  0
    3.1281    1.7317    0.0000 C   0  0  0  0  0  0  0  0  0  0  0  0
    1.6410    1.5358    0.0000 C   0  0  0  0  0  0  0  0  0  0  0  0
    1.0671    0.1499    0.0000 C   0  0  0  0  0  0  0  0  0  0  0  0
   -4.1732    0.7023    0.0000 C   0  0  0  0  0  0  0  0  0  0  0  0
   -4.0556    2.1976    0.0000 O   0  0  0  0  0  0  0  0  0  0  0  0
   -5.5270    0.0564    0.0000 O   0  0  0  0  0  0  0  0  0  0  0  0
  2  1  1  6
  2  3  1  0
  3  4  1  0
  4  5  2  0
  5  6  1  0
  6  7  1  0
  7  8  1  0
  8  9  2  0
  9 10  1  0
  9 11  1  0
 11 12  2  0
 12 13  1  0
  2 14  1  0
 14 15  2  0
 14 16  1  0
 13  4  1  0
 13  7  2  0
M  END
>  <rName>  (528) 
Trp_6Me

>  <PQ_SYMBOL>  (528) 
Trp_6Me

>  <FULL_NAME>  (528) 
6-Methyl-L-Tryptophan

>  <IUPAC_CONDENSED>  (528) 
Trp(6-Me)

>  <IUPAC>  (528) 
(2S)-2-amino-3-(6-methyl-1H-indol-3-yl)propanoic acid

>  <TYPE>  (528) 
Backbone

>  <CLASS>  (528) 
alpha

>  <ANALOG>  (528) 
Trp

>  <MOL_WT>  (528) 
218.25599999999997

>  <LOGP>  (528) 
1.4307200000000002

>  <TPSA>  (528) 
79.11

>  <POPULARITY>  (528) 
7.9

>  <PROTECTED>  (528) 
TRUE

>  <SMILES>  (528) 
N[C@@H](Cc1(c[nH]c2(cc(C)ccc12)))C(=O)O

>  <INCHIKEY>  (528) 
GDMRVYIFGPMUCG-JTQLQIEISA-N

$$$$
Phe_3OH
     RDKit          2D

 13 13  0  0  0  0  0  0  0  0999 V2000
   -1.7680    1.6690    0.0000 N   0  0  0  0  0  0  0  0  0  0  0  0
   -1.9932    0.1860    0.0000 C   0  0  0  0  0  0  0  0  0  0  0  0
   -0.8215   -0.7506    0.0000 C   0  0  0  0  0  0  0  0  0  0  0  0
    0.5754   -0.2041    0.0000 C   0  0  0  0  0  0  0  0  0  0  0  0
    0.8006    1.2789    0.0000 C   0  0  0  0  0  0  0  0  0  0  0  0
    2.1976    1.8254    0.0000 C   0  0  0  0  0  0  0  0  0  0  0  0
    3.3693    0.8888    0.0000 C   0  0  0  0  0  0  0  0  0  0  0  0
    3.1441   -0.5942    0.0000 C   0  0  0  0  0  0  0  0  0  0  0  0
    4.3158   -1.5307    0.0000 O   0  0  0  0  0  0  0  0  0  0  0  0
    1.7472   -1.1406    0.0000 C   0  0  0  0  0  0  0  0  0  0  0  0
   -3.3901   -0.3605    0.0000 C   0  0  0  0  0  0  0  0  0  0  0  0
   -3.6153   -1.8435    0.0000 O   0  0  0  0  0  0  0  0  0  0  0  0
   -4.5618    0.5760    0.0000 O   0  0  0  0  0  0  0  0  0  0  0  0
  2  1  1  1
  2  3  1  0
  3  4  1  0
  4  5  2  0
  5  6  1  0
  6  7  2  0
  7  8  1  0
  8  9  1  0
  8 10  2  0
  2 11  1  0
 11 12  2  0
 11 13  1  0
 10  4  1  0
M  END
>  <rName>  (529) 
Phe_3OH

>  <PQ_SYMBOL>  (529) 
Phe_3OH

>  <FULL_NAME>  (529) 
3-Hydroxy-L-Phenylalanine

>  <IUPAC_CONDENSED>  (529) 
Phe(3-OH)

>  <IUPAC>  (529) 
(2S)-2-amino-3-(3-hydroxyphenyl)propanoic acid

>  <TYPE>  (529) 
Backbone

>  <CLASS>  (529) 
alpha

>  <ANALOG>  (529) 
Tyr

>  <MOL_WT>  (529) 
181.19099999999997

>  <LOGP>  (529) 
0.3466

>  <TPSA>  (529) 
83.55

>  <POPULARITY>  (529) 
28.8

>  <PROTECTED>  (529) 
TRUE

>  <SMILES>  (529) 
N[C@@H](Cc1(cccc(O)c1))C(=O)O

>  <INCHIKEY>  (529) 
JZKXXXDKRQWDET-QMMMGPOBSA-N

$$$$
Tyr_3NO2
     RDKit          2D

 16 16  0  0  0  0  0  0  0  0999 V2000
   -2.7936    1.6481    0.0000 N   0  0  0  0  0  0  0  0  0  0  0  0
   -2.9203    0.1535    0.0000 C   0  0  0  0  0  0  0  0  0  0  0  0
   -1.6893   -0.7036    0.0000 C   0  0  0  0  0  0  0  0  0  0  0  0
   -0.3315   -0.0660    0.0000 C   0  0  0  0  0  0  0  0  0  0  0  0
   -0.2048    1.4287    0.0000 C   0  0  0  0  0  0  0  0  0  0  0  0
    1.1530    2.0662    0.0000 C   0  0  0  0  0  0  0  0  0  0  0  0
    2.3840    1.2092    0.0000 C   0  0  0  0  0  0  0  0  0  0  0  0
    3.7417    1.8468    0.0000 O   0  0  0  0  0  0  0  0  0  0  0  0
    2.2573   -0.2855    0.0000 C   0  0  0  0  0  0  0  0  0  0  0  0
    0.8995   -0.9230    0.0000 C   0  0  0  0  0  0  0  0  0  0  0  0
    3.4883   -1.1425    0.0000 N   0  0  0  0  0  0  0  0  0  0  0  0
    4.8461   -0.5049    0.0000 O   0  0  0  0  0  0  0  0  0  0  0  0
    3.3616   -2.6372    0.0000 O   0  0  0  0  0  0  0  0  0  0  0  0
   -4.2781   -0.4841    0.0000 C   0  0  0  0  0  0  0  0  0  0  0  0
   -4.4048   -1.9787    0.0000 O   0  0  0  0  0  0  0  0  0  0  0  0
   -5.5091    0.3730    0.0000 O   0  0  0  0  0  0  0  0  0  0  0  0
  2  1  1  1
  2  3  1  0
  3  4  1  0
  4  5  1  0
  5  6  2  0
  6  7  1  0
  7  8  1  0
  7  9  2  0
  9 10  1  0
  9 11  1  0
 11 12  2  0
 11 13  1  0
  2 14  1  0
 14 15  2  0
 14 16  1  0
 10  4  2  0
M  CHG  2  11   1  13  -1
M  END
>  <rName>  (530) 
Tyr_3NO2

>  <PQ_SYMBOL>  (530) 
Tyr_3NO2

>  <FULL_NAME>  (530) 
3-Nitro-L-Tyrosine

>  <IUPAC_CONDENSED>  (530) 
Tyr(3-NO2)

>  <IUPAC>  (530) 
(2S)-2-amino-3-(4-hydroxy-3-nitrophenyl)propanoic acid

>  <TYPE>  (530) 
Backbone

>  <CLASS>  (530) 
alpha

>  <ANALOG>  (530) 
Tyr

>  <MOL_WT>  (530) 
226.18799999999996

>  <LOGP>  (530) 
0.2547999999999999

>  <TPSA>  (530) 
126.69000000000001

>  <POPULARITY>  (530) 
18.2

>  <PROTECTED>  (530) 
TRUE

>  <SMILES>  (530) 
N[C@@H](Cc1(ccc(O)c(c1)[N+](=O)[O-]))C(=O)O

>  <INCHIKEY>  (530) 
FBTSQILOGYXGMD-LURJTMIESA-N

$$$$
Nva
     RDKit          2D

  8  7  0  0  0  0  0  0  0  0999 V2000
   -0.2517   -1.8862    0.0000 N   0  0  0  0  0  0  0  0  0  0  0  0
   -0.3100   -0.3873    0.0000 C   0  0  0  0  0  0  0  0  0  0  0  0
    0.9590    0.4126    0.0000 C   0  0  0  0  0  0  0  0  0  0  0  0
    2.2862   -0.2864    0.0000 C   0  0  0  0  0  0  0  0  0  0  0  0
    3.5551    0.5134    0.0000 C   0  0  0  0  0  0  0  0  0  0  0  0
   -1.6371    0.3117    0.0000 C   0  0  0  0  0  0  0  0  0  0  0  0
   -1.6954    1.8105    0.0000 O   0  0  0  0  0  0  0  0  0  0  0  0
   -2.9061   -0.4882    0.0000 O   0  0  0  0  0  0  0  0  0  0  0  0
  2  1  1  6
  2  3  1  0
  3  4  1  0
  4  5  1  0
  2  6  1  0
  6  7  2  0
  6  8  1  0
M  END
>  <rName>  (531) 
Nva

>  <PQ_SYMBOL>  (531) 
Nva

>  <FULL_NAME>  (531) 
L-Norvaline

>  <IUPAC_CONDENSED>  (531) 
Nva

>  <IUPAC>  (531) 
(2S)-2-aminopentanoic acid

>  <TYPE>  (531) 
Backbone

>  <CLASS>  (531) 
alpha

>  <ANALOG>  (531) 
Val

>  <MOL_WT>  (531) 
117.14799999999998

>  <LOGP>  (531) 
0.19839999999999985

>  <TPSA>  (531) 
63.32000000000001

>  <POPULARITY>  (531) 
48.4

>  <PROTECTED>  (531) 
TRUE

>  <SMILES>  (531) 
N[C@@H](CCC)C(=O)O

>  <INCHIKEY>  (531) 
SNDPXSYFESPGGJ-BYPYZUCNSA-N

$$$$
Ser_Ac
     RDKit          2D

 10  9  0  0  0  0  0  0  0  0999 V2000
   -1.2717    1.9622    0.0000 N   0  0  0  0  0  0  0  0  0  0  0  0
   -1.1946    0.4642    0.0000 C   0  0  0  0  0  0  0  0  0  0  0  0
    0.1413   -0.2180    0.0000 C   0  0  0  0  0  0  0  0  0  0  0  0
    1.4001    0.5978    0.0000 O   0  0  0  0  0  0  0  0  0  0  0  0
    2.7359   -0.0845    0.0000 C   0  0  0  0  0  0  0  0  0  0  0  0
    2.8131   -1.5825    0.0000 O   0  0  0  0  0  0  0  0  0  0  0  0
    3.9947    0.7313    0.0000 C   0  0  0  0  0  0  0  0  0  0  0  0
   -2.4533   -0.3516    0.0000 C   0  0  0  0  0  0  0  0  0  0  0  0
   -2.3762   -1.8496    0.0000 O   0  0  0  0  0  0  0  0  0  0  0  0
   -3.7892    0.3306    0.0000 O   0  0  0  0  0  0  0  0  0  0  0  0
  2  1  1  1
  2  3  1  0
  3  4  1  0
  4  5  1  0
  5  6  2  0
  5  7  1  0
  2  8  1  0
  8  9  2  0
  8 10  1  0
M  END
>  <rName>  (532) 
Ser_Ac

>  <PQ_SYMBOL>  (532) 
Ser_Ac

>  <FULL_NAME>  (532) 
O-Acetyl-L-Serine

>  <IUPAC_CONDENSED>  (532) 
Ser(Ac)

>  <IUPAC>  (532) 
(2S)-2-amino-3-(acetoxy)propanoic acid

>  <TYPE>  (532) 
Backbone

>  <CLASS>  (532) 
alpha

>  <ANALOG>  (532) 
Ser

>  <MOL_WT>  (532) 
147.13

>  <LOGP>  (532) 
-1.0385999999999997

>  <TPSA>  (532) 
89.62

>  <POPULARITY>  (532) 
28.5

>  <PROTECTED>  (532) 
TRUE

>  <SMILES>  (532) 
N[C@@H](COC(=O)C)C(=O)O

>  <INCHIKEY>  (532) 
VZXPDPZARILFQX-BYPYZUCNSA-N

$$$$
Thr_Me
     RDKit          2D

  9  8  0  0  0  0  0  0  0  0999 V2000
    0.3500    1.8226    0.0000 N   0  0  0  0  0  0  0  0  0  0  0  0
   -0.1586    0.4115    0.0000 C   0  0  0  0  0  0  0  0  0  0  0  0
    0.8093   -0.7345    0.0000 C   0  0  0  0  0  0  0  0  0  0  0  0
    2.2856   -0.4694    0.0000 O   0  0  0  0  0  0  0  0  0  0  0  0
    2.7942    0.9418    0.0000 C   0  0  0  0  0  0  0  0  0  0  0  0
    0.3007   -2.1457    0.0000 C   0  0  0  0  0  0  0  0  0  0  0  0
   -1.6349    0.1463    0.0000 C   0  0  0  0  0  0  0  0  0  0  0  0
   -2.1435   -1.2648    0.0000 O   0  0  0  0  0  0  0  0  0  0  0  0
   -2.6028    1.2923    0.0000 O   0  0  0  0  0  0  0  0  0  0  0  0
  2  1  1  1
  2  3  1  0
  3  4  1  0
  4  5  1  0
  3  6  1  6
  2  7  1  0
  7  8  2  0
  7  9  1  0
M  END
>  <rName>  (533) 
Thr_Me

>  <PQ_SYMBOL>  (533) 
Thr_Me

>  <FULL_NAME>  (533) 
(2S,3R)-2-Amino-3-methoxybutanoic acid, O-Methyl-L-Threonine

>  <IUPAC_CONDENSED>  (533) 
Thr(Me)

>  <IUPAC>  (533) 
(2S,3R)-2-amino-3-methoxybutanoic acid

>  <TYPE>  (533) 
Backbone

>  <CLASS>  (533) 
alpha

>  <ANALOG>  (533) 
Thr

>  <MOL_WT>  (533) 
133.147

>  <LOGP>  (533) 
-0.5668000000000002

>  <TPSA>  (533) 
72.55

>  <POPULARITY>  (533) 
20.6

>  <PROTECTED>  (533) 
TRUE

>  <SMILES>  (533) 
N[C@@H]([C@H](OC)C)C(=O)O

>  <INCHIKEY>  (533) 
FYCWLJLGIAUCCL-DMTCNVIQSA-N

$$$$
Phe_2OH
     RDKit          2D

 13 13  0  0  0  0  0  0  0  0999 V2000
   -1.4864    1.8099    0.0000 N   0  0  0  0  0  0  0  0  0  0  0  0
   -1.7669    0.3364    0.0000 C   0  0  0  0  0  0  0  0  0  0  0  0
   -0.6311   -0.6433    0.0000 C   0  0  0  0  0  0  0  0  0  0  0  0
    0.7853   -0.1495    0.0000 C   0  0  0  0  0  0  0  0  0  0  0  0
    1.0658    1.3241    0.0000 C   0  0  0  0  0  0  0  0  0  0  0  0
    2.4822    1.8179    0.0000 C   0  0  0  0  0  0  0  0  0  0  0  0
    3.6181    0.8382    0.0000 C   0  0  0  0  0  0  0  0  0  0  0  0
    3.3376   -0.6353    0.0000 C   0  0  0  0  0  0  0  0  0  0  0  0
    1.9212   -1.1292    0.0000 C   0  0  0  0  0  0  0  0  0  0  0  0
    1.6407   -2.6027    0.0000 O   0  0  0  0  0  0  0  0  0  0  0  0
   -3.1833   -0.1575    0.0000 C   0  0  0  0  0  0  0  0  0  0  0  0
   -3.4638   -1.6310    0.0000 O   0  0  0  0  0  0  0  0  0  0  0  0
   -4.3192    0.8222    0.0000 O   0  0  0  0  0  0  0  0  0  0  0  0
  2  1  1  1
  2  3  1  0
  3  4  1  0
  4  5  2  0
  5  6  1  0
  6  7  2  0
  7  8  1  0
  8  9  2  0
  9 10  1  0
  2 11  1  0
 11 12  2  0
 11 13  1  0
  9  4  1  0
M  END
>  <rName>  (534) 
Phe_2OH

>  <PQ_SYMBOL>  (534) 
Phe_2OH

>  <FULL_NAME>  (534) 
2-Hydroxy-L-Phenylalanine

>  <IUPAC_CONDENSED>  (534) 
Phe(2-OH)

>  <IUPAC>  (534) 
(2S)-2-amino-3-(2-hydroxyphenyl)propanoic acid

>  <TYPE>  (534) 
Backbone

>  <CLASS>  (534) 
alpha

>  <ANALOG>  (534) 
Tyr

>  <MOL_WT>  (534) 
181.19099999999997

>  <LOGP>  (534) 
0.3466

>  <TPSA>  (534) 
83.55

>  <POPULARITY>  (534) 
7.5

>  <PROTECTED>  (534) 
TRUE

>  <SMILES>  (534) 
N[C@@H](Cc1(ccccc1O))C(=O)O

>  <INCHIKEY>  (534) 
WRFPVMFCRNYQNR-ZETCQYMHSA-N

$$$$
Phe_4NO2
     RDKit          2D

 15 15  0  0  0  0  0  0  0  0999 V2000
   -2.2547    1.6872    0.0000 N   0  0  0  0  0  0  0  0  0  0  0  0
   -2.7489    0.2709    0.0000 C   0  0  0  0  0  0  0  0  0  0  0  0
   -1.7696   -0.8652    0.0000 C   0  0  0  0  0  0  0  0  0  0  0  0
   -0.2959   -0.5852    0.0000 C   0  0  0  0  0  0  0  0  0  0  0  0
    0.1983    0.8311    0.0000 C   0  0  0  0  0  0  0  0  0  0  0  0
    1.6719    1.1111    0.0000 C   0  0  0  0  0  0  0  0  0  0  0  0
    2.6513   -0.0250    0.0000 C   0  0  0  0  0  0  0  0  0  0  0  0
    2.1570   -1.4413    0.0000 C   0  0  0  0  0  0  0  0  0  0  0  0
    0.6834   -1.7213    0.0000 C   0  0  0  0  0  0  0  0  0  0  0  0
    4.1249    0.2550    0.0000 N   0  0  0  0  0  0  0  0  0  0  0  0
    4.6192    1.6713    0.0000 O   0  0  0  0  0  0  0  0  0  0  0  0
    5.1043   -0.8811    0.0000 O   0  0  0  0  0  0  0  0  0  0  0  0
   -4.2225   -0.0091    0.0000 C   0  0  0  0  0  0  0  0  0  0  0  0
   -4.7168   -1.4254    0.0000 O   0  0  0  0  0  0  0  0  0  0  0  0
   -5.2019    1.1270    0.0000 O   0  0  0  0  0  0  0  0  0  0  0  0
  2  1  1  1
  2  3  1  0
  3  4  1  0
  4  5  1  0
  5  6  2  0
  6  7  1  0
  7  8  2  0
  8  9  1  0
  7 10  1  0
 10 11  2  0
 10 12  1  0
  2 13  1  0
 13 14  2  0
 13 15  1  0
  9  4  2  0
M  CHG  2  10   1  12  -1
M  END
>  <rName>  (535) 
Phe_4NO2

>  <PQ_SYMBOL>  (535) 
Phe_4NO2

>  <FULL_NAME>  (535) 
4-Nitro-L-Phenylalanine

>  <IUPAC_CONDENSED>  (535) 
Phe(4-NO2)

>  <IUPAC>  (535) 
(2S)-2-amino-3-(4-nitrophenyl)propanoic acid

>  <TYPE>  (535) 
Backbone

>  <CLASS>  (535) 
alpha

>  <ANALOG>  (535) 
Phe

>  <MOL_WT>  (535) 
210.18899999999994

>  <LOGP>  (535) 
0.5492000000000001

>  <TPSA>  (535) 
106.46

>  <POPULARITY>  (535) 
21.1

>  <PROTECTED>  (535) 
TRUE

>  <SMILES>  (535) 
N[C@@H](Cc1(ccc(cc1)[N+](=O)[O-]))C(=O)O

>  <INCHIKEY>  (535) 
GTVVZTAFGPQSPC-QMMMGPOBSA-N

$$$$
Tyr_PO3H2
     RDKit          2D

 17 17  0  0  0  0  0  0  0  0999 V2000
   -3.1457    1.6694    0.0000 N   0  0  0  0  0  0  0  0  0  0  0  0
   -3.4800    0.2071    0.0000 C   0  0  0  0  0  0  0  0  0  0  0  0
   -2.3807   -0.8135    0.0000 C   0  0  0  0  0  0  0  0  0  0  0  0
   -0.9472   -0.3718    0.0000 C   0  0  0  0  0  0  0  0  0  0  0  0
   -0.6130    1.0905    0.0000 C   0  0  0  0  0  0  0  0  0  0  0  0
    0.8205    1.5322    0.0000 C   0  0  0  0  0  0  0  0  0  0  0  0
    1.9198    0.5116    0.0000 C   0  0  0  0  0  0  0  0  0  0  0  0
    3.3533    0.9532    0.0000 O   0  0  0  0  0  0  0  0  0  0  0  0
    4.4525   -0.0674    0.0000 P   0  0  0  0  0  0  0  0  0  0  0  0
    5.4731    1.0319    0.0000 O   0  0  0  0  0  0  0  0  0  0  0  0
    3.4319   -1.1666    0.0000 O   0  0  0  0  0  0  0  0  0  0  0  0
    5.5518   -1.0880    0.0000 O   0  0  0  0  0  0  0  0  0  0  0  0
    1.5855   -0.9507    0.0000 C   0  0  0  0  0  0  0  0  0  0  0  0
    0.1520   -1.3924    0.0000 C   0  0  0  0  0  0  0  0  0  0  0  0
   -4.9135   -0.2346    0.0000 C   0  0  0  0  0  0  0  0  0  0  0  0
   -5.2477   -1.6969    0.0000 O   0  0  0  0  0  0  0  0  0  0  0  0
   -6.0127    0.7860    0.0000 O   0  0  0  0  0  0  0  0  0  0  0  0
  2  1  1  1
  2  3  1  0
  3  4  1  0
  4  5  1  0
  5  6  2  0
  6  7  1  0
  7  8  1  0
  8  9  1  0
  9 10  2  0
  9 11  1  0
  9 12  1  0
  7 13  2  0
 13 14  1  0
  2 15  1  0
 15 16  2  0
 15 17  1  0
 14  4  2  0
M  END
>  <rName>  (536) 
Tyr_PO3H2

>  <PQ_SYMBOL>  (536) 
Tyr_PO3H2

>  <FULL_NAME>  (536) 
O-Phospho-L-Tyrosine

>  <IUPAC_CONDENSED>  (536) 
Tyr(PO3H2)

>  <IUPAC>  (536) 
4-((2S)-2-amino-3-hydroxy-3-oxopropyl)phenyl dihydrogen phosphate

>  <TYPE>  (536) 
Backbone

>  <CLASS>  (536) 
alpha

>  <ANALOG>  (536) 
Tyr

>  <MOL_WT>  (536) 
261.16999999999996

>  <LOGP>  (536) 
0.1125000000000001

>  <TPSA>  (536) 
130.07999999999998

>  <POPULARITY>  (536) 
56.1

>  <PROTECTED>  (536) 
TRUE

>  <SMILES>  (536) 
N[C@@H](Cc1(ccc(OP(=O)(O)O)cc1))C(=O)O

>  <INCHIKEY>  (536) 
DCWXELXMIBXGTH-QMMMGPOBSA-N

$$$$
2Pal
     RDKit          2D

 12 12  0  0  0  0  0  0  0  0999 V2000
   -1.2391    1.6805    0.0000 N   0  0  0  0  0  0  0  0  0  0  0  0
   -1.6184    0.2292    0.0000 C   0  0  0  0  0  0  0  0  0  0  0  0
   -0.5513   -0.8249    0.0000 C   0  0  0  0  0  0  0  0  0  0  0  0
    0.8952   -0.4278    0.0000 C   0  0  0  0  0  0  0  0  0  0  0  0
    1.2745    1.0235    0.0000 C   0  0  0  0  0  0  0  0  0  0  0  0
    2.7210    1.4206    0.0000 C   0  0  0  0  0  0  0  0  0  0  0  0
    3.7882    0.3665    0.0000 C   0  0  0  0  0  0  0  0  0  0  0  0
    3.4088   -1.0848    0.0000 C   0  0  0  0  0  0  0  0  0  0  0  0
    1.9624   -1.4819    0.0000 N   0  0  0  0  0  0  0  0  0  0  0  0
   -3.0649   -0.1679    0.0000 C   0  0  0  0  0  0  0  0  0  0  0  0
   -3.4442   -1.6191    0.0000 O   0  0  0  0  0  0  0  0  0  0  0  0
   -4.1321    0.8862    0.0000 O   0  0  0  0  0  0  0  0  0  0  0  0
  2  1  1  1
  2  3  1  0
  3  4  1  0
  4  5  2  0
  5  6  1  0
  6  7  2  0
  7  8  1  0
  8  9  2  0
  2 10  1  0
 10 11  2  0
 10 12  1  0
  9  4  1  0
M  END
>  <rName>  (537) 
2Pal

>  <PQ_SYMBOL>  (537) 
2Pal

>  <FULL_NAME>  (537) 
3-(2-Pyridyl)-L-Alanine

>  <IUPAC_CONDENSED>  (537) 
2Pal

>  <IUPAC>  (537) 
(2S)-2-amino-3-(pyridin-2-yl)propanoic acid

>  <TYPE>  (537) 
Backbone

>  <CLASS>  (537) 
alpha

>  <ANALOG>  (537) 
Phe

>  <MOL_WT>  (537) 
166.17999999999998

>  <LOGP>  (537) 
0.035999999999999754

>  <TPSA>  (537) 
76.21

>  <POPULARITY>  (537) 
16.2

>  <PROTECTED>  (537) 
TRUE

>  <SMILES>  (537) 
N[C@@H](Cc1(ccccn1))C(=O)O

>  <INCHIKEY>  (537) 
PDRJLZDUOULRHE-ZETCQYMHSA-N

$$$$
Ala_pyrazol1yl
     RDKit          2D

 11 11  0  0  0  0  0  0  0  0999 V2000
   -0.9461    1.6947    0.0000 N   0  0  0  0  0  0  0  0  0  0  0  0
   -1.3100    0.2395    0.0000 C   0  0  0  0  0  0  0  0  0  0  0  0
   -0.2317   -0.8032    0.0000 C   0  0  0  0  0  0  0  0  0  0  0  0
    1.2105   -0.3908    0.0000 N   0  0  0  0  0  0  0  0  0  0  0  0
    2.3919   -1.3151    0.0000 C   0  0  0  0  0  0  0  0  0  0  0  0
    3.6360   -0.4772    0.0000 C   0  0  0  0  0  0  0  0  0  0  0  0
    3.2236    0.9650    0.0000 C   0  0  0  0  0  0  0  0  0  0  0  0
    1.7245    1.0184    0.0000 N   0  0  0  0  0  0  0  0  0  0  0  0
   -2.7522   -0.1729    0.0000 C   0  0  0  0  0  0  0  0  0  0  0  0
   -3.1161   -1.6281    0.0000 O   0  0  0  0  0  0  0  0  0  0  0  0
   -3.8304    0.8698    0.0000 O   0  0  0  0  0  0  0  0  0  0  0  0
  2  1  1  1
  2  3  1  0
  3  4  1  0
  4  5  1  0
  5  6  2  0
  6  7  1  0
  7  8  2  0
  2  9  1  0
  9 10  2  0
  9 11  1  0
  8  4  1  0
M  END
>  <rName>  (538) 
Ala_pyrazol1yl

>  <PQ_SYMBOL>  (538) 
Ala_pyrazol1yl

>  <FULL_NAME>  (538) 
3-(1-Pyrazolyl)-L-Alanine

>  <IUPAC_CONDENSED>  (538) 
Ala(pyrazol-1-yl)

>  <IUPAC>  (538) 
(2S)-2-amino-3-(1H-pyrazol-1-yl)propanoic acid

>  <TYPE>  (538) 
Backbone

>  <CLASS>  (538) 
alpha

>  <ANALOG>  (538) 
Phe

>  <MOL_WT>  (538) 
155.15699999999998

>  <LOGP>  (538) 
-0.7050000000000005

>  <TPSA>  (538) 
81.14

>  <POPULARITY>  (538) 
7.5

>  <PROTECTED>  (538) 
TRUE

>  <SMILES>  (538) 
N[C@@H](Cn1(cccn1))C(=O)O

>  <INCHIKEY>  (538) 
PIGOPELHGLPKLL-YFKPBYRVSA-N

$$$$
Ala_quinolin2yl
     RDKit          2D

 16 17  0  0  0  0  0  0  0  0999 V2000
   -2.0722    1.6358    0.0000 N   0  0  0  0  0  0  0  0  0  0  0  0
   -2.7778    0.3121    0.0000 C   0  0  0  0  0  0  0  0  0  0  0  0
   -1.9842   -0.9608    0.0000 C   0  0  0  0  0  0  0  0  0  0  0  0
   -0.4851   -0.9100    0.0000 C   0  0  0  0  0  0  0  0  0  0  0  0
    0.3084   -2.1829    0.0000 C   0  0  0  0  0  0  0  0  0  0  0  0
    1.8076   -2.1322    0.0000 C   0  0  0  0  0  0  0  0  0  0  0  0
    2.5132   -0.8085    0.0000 C   0  0  0  0  0  0  0  0  0  0  0  0
    4.0123   -0.7577    0.0000 C   0  0  0  0  0  0  0  0  0  0  0  0
    4.7179    0.5659    0.0000 C   0  0  0  0  0  0  0  0  0  0  0  0
    3.9244    1.8388    0.0000 C   0  0  0  0  0  0  0  0  0  0  0  0
    2.4253    1.7881    0.0000 C   0  0  0  0  0  0  0  0  0  0  0  0
    1.7196    0.4644    0.0000 C   0  0  0  0  0  0  0  0  0  0  0  0
    0.2205    0.4136    0.0000 N   0  0  0  0  0  0  0  0  0  0  0  0
   -4.2769    0.2614    0.0000 C   0  0  0  0  0  0  0  0  0  0  0  0
   -4.9825   -1.0623    0.0000 O   0  0  0  0  0  0  0  0  0  0  0  0
   -5.0704    1.5343    0.0000 O   0  0  0  0  0  0  0  0  0  0  0  0
  2  1  1  1
  2  3  1  0
  3  4  1  0
  4  5  1  0
  5  6  2  0
  6  7  1  0
  7  8  2  0
  8  9  1  0
  9 10  2  0
 10 11  1  0
 11 12  2  0
 12 13  1  0
  2 14  1  0
 14 15  2  0
 14 16  1  0
 12  7  1  0
 13  4  2  0
M  END
>  <rName>  (539) 
Ala_quinolin2yl

>  <PQ_SYMBOL>  (539) 
Ala_quinolin2yl

>  <FULL_NAME>  (539) 
3-(2-Quinolyl)-L-Alanine

>  <IUPAC_CONDENSED>  (539) 
Ala(quinolin-2-yl)

>  <IUPAC>  (539) 
(2S)-2-amino-3-(2-azabicyclo[4.4.0]deca-1,3,5,7,9-pentaen-3-yl)propanoic acid

>  <TYPE>  (539) 
Backbone

>  <CLASS>  (539) 
alpha

>  <ANALOG>  (539) 
Phe

>  <MOL_WT>  (539) 
216.23999999999998

>  <LOGP>  (539) 
1.1892

>  <TPSA>  (539) 
76.21

>  <POPULARITY>  (539) 
6.9

>  <PROTECTED>  (539) 
TRUE

>  <SMILES>  (539) 
N[C@@H](Cc2(ccc1(ccccc1n2)))C(=O)O

>  <INCHIKEY>  (539) 
CRSSRGSNAKKNNI-JTQLQIEISA-N

$$$$
Ala_quinolin3yl
     RDKit          2D

 16 17  0  0  0  0  0  0  0  0999 V2000
   -2.0722    1.6358    0.0000 N   0  0  0  0  0  0  0  0  0  0  0  0
   -2.7778    0.3121    0.0000 C   0  0  0  0  0  0  0  0  0  0  0  0
   -1.9842   -0.9608    0.0000 C   0  0  0  0  0  0  0  0  0  0  0  0
   -0.4851   -0.9100    0.0000 C   0  0  0  0  0  0  0  0  0  0  0  0
    0.3084   -2.1829    0.0000 C   0  0  0  0  0  0  0  0  0  0  0  0
    1.8076   -2.1322    0.0000 N   0  0  0  0  0  0  0  0  0  0  0  0
    2.5132   -0.8085    0.0000 C   0  0  0  0  0  0  0  0  0  0  0  0
    4.0123   -0.7577    0.0000 C   0  0  0  0  0  0  0  0  0  0  0  0
    4.7179    0.5659    0.0000 C   0  0  0  0  0  0  0  0  0  0  0  0
    3.9244    1.8388    0.0000 C   0  0  0  0  0  0  0  0  0  0  0  0
    2.4253    1.7881    0.0000 C   0  0  0  0  0  0  0  0  0  0  0  0
    1.7196    0.4644    0.0000 C   0  0  0  0  0  0  0  0  0  0  0  0
    0.2205    0.4136    0.0000 C   0  0  0  0  0  0  0  0  0  0  0  0
   -4.2769    0.2614    0.0000 C   0  0  0  0  0  0  0  0  0  0  0  0
   -4.9825   -1.0623    0.0000 O   0  0  0  0  0  0  0  0  0  0  0  0
   -5.0704    1.5343    0.0000 O   0  0  0  0  0  0  0  0  0  0  0  0
  2  1  1  1
  2  3  1  0
  3  4  1  0
  4  5  1  0
  5  6  2  0
  6  7  1  0
  7  8  2  0
  8  9  1  0
  9 10  2  0
 10 11  1  0
 11 12  2  0
 12 13  1  0
  2 14  1  0
 14 15  2  0
 14 16  1  0
 12  7  1  0
 13  4  2  0
M  END
>  <rName>  (540) 
Ala_quinolin3yl

>  <PQ_SYMBOL>  (540) 
Ala_quinolin3yl

>  <FULL_NAME>  (540) 
3-(3-quinolyl)-L-Alanine

>  <IUPAC_CONDENSED>  (540) 
Ala(quinolin-3-yl)

>  <IUPAC>  (540) 
(2S)-2-amino-3-(2-azabicyclo[4.4.0]deca-1,3,5,7,9-pentaen-4-yl)propanoic acid

>  <TYPE>  (540) 
Backbone

>  <CLASS>  (540) 
alpha

>  <ANALOG>  (540) 
Phe

>  <MOL_WT>  (540) 
216.23999999999998

>  <LOGP>  (540) 
1.1892000000000003

>  <TPSA>  (540) 
76.21

>  <POPULARITY>  (540) 
5.5

>  <PROTECTED>  (540) 
TRUE

>  <SMILES>  (540) 
N[C@@H](Cc2(cnc1(ccccc1c2)))C(=O)O

>  <INCHIKEY>  (540) 
KWWSORXERGAEGJ-JTQLQIEISA-N

$$$$
Ser_PO3H2
     RDKit          2D

 11 10  0  0  0  0  0  0  0  0999 V2000
    1.5275    1.9644    0.0000 N   0  0  0  0  0  0  0  0  0  0  0  0
    1.4450    0.4666    0.0000 C   0  0  0  0  0  0  0  0  0  0  0  0
    0.1067   -0.2107    0.0000 C   0  0  0  0  0  0  0  0  0  0  0  0
   -1.1491    0.6096    0.0000 O   0  0  0  0  0  0  0  0  0  0  0  0
   -2.4875   -0.0678    0.0000 P   0  0  0  0  0  0  0  0  0  0  0  0
   -3.1649    1.2706    0.0000 O   0  0  0  0  0  0  0  0  0  0  0  0
   -1.8101   -1.4061    0.0000 O   0  0  0  0  0  0  0  0  0  0  0  0
   -3.8258   -0.7452    0.0000 O   0  0  0  0  0  0  0  0  0  0  0  0
    2.7008   -0.3537    0.0000 C   0  0  0  0  0  0  0  0  0  0  0  0
    2.6183   -1.8514    0.0000 O   0  0  0  0  0  0  0  0  0  0  0  0
    4.0391    0.3237    0.0000 O   0  0  0  0  0  0  0  0  0  0  0  0
  2  1  1  6
  2  3  1  0
  3  4  1  0
  4  5  1  0
  5  6  2  0
  5  7  1  0
  5  8  1  0
  2  9  1  0
  9 10  2  0
  9 11  1  0
M  END
>  <rName>  (541) 
Ser_PO3H2

>  <PQ_SYMBOL>  (541) 
Ser_PO3H2

>  <FULL_NAME>  (541) 
O-Phospho-L-Serine

>  <IUPAC_CONDENSED>  (541) 
Ser(PO3H2)

>  <IUPAC>  (541) 
(2S)-2-amino-3-hydroxy-3-oxopropyl dihydrogen phosphate

>  <TYPE>  (541) 
Backbone

>  <CLASS>  (541) 
alpha

>  <ANALOG>  (541) 
Ser

>  <MOL_WT>  (541) 
185.072

>  <LOGP>  (541) 
-1.4924000000000002

>  <TPSA>  (541) 
130.07999999999998

>  <POPULARITY>  (541) 
54.3

>  <PROTECTED>  (541) 
TRUE

>  <SMILES>  (541) 
N[C@@H](COP(=O)(O)O)C(=O)O

>  <INCHIKEY>  (541) 
BZQFBWGGLXLEPQ-REOHCLBHSA-N

$$$$
Nva_45dehydro_5Ph
     RDKit          2D

 14 14  0  0  0  0  0  0  0  0999 V2000
   -2.7125    1.8435    0.0000 N   0  0  0  0  0  0  0  0  0  0  0  0
   -2.9490    0.3623    0.0000 C   0  0  0  0  0  0  0  0  0  0  0  0
   -1.7844   -0.5831    0.0000 C   0  0  0  0  0  0  0  0  0  0  0  0
   -0.3834   -0.0473    0.0000 C   0  0  0  0  0  0  0  0  0  0  0  0
    0.7812   -0.9927    0.0000 C   0  0  0  0  0  0  0  0  0  0  0  0
    2.1822   -0.4569    0.0000 C   0  0  0  0  0  0  0  0  0  0  0  0
    2.4187    1.0244    0.0000 C   0  0  0  0  0  0  0  0  0  0  0  0
    3.8197    1.5602    0.0000 C   0  0  0  0  0  0  0  0  0  0  0  0
    4.9842    0.6148    0.0000 C   0  0  0  0  0  0  0  0  0  0  0  0
    4.7478   -0.8664    0.0000 C   0  0  0  0  0  0  0  0  0  0  0  0
    3.3467   -1.4023    0.0000 C   0  0  0  0  0  0  0  0  0  0  0  0
   -4.3500   -0.1735    0.0000 C   0  0  0  0  0  0  0  0  0  0  0  0
   -4.5865   -1.6548    0.0000 O   0  0  0  0  0  0  0  0  0  0  0  0
   -5.5146    0.7719    0.0000 O   0  0  0  0  0  0  0  0  0  0  0  0
  2  1  1  1
  2  3  1  0
  3  4  1  0
  4  5  2  3
  5  6  1  0
  6  7  2  0
  7  8  1  0
  8  9  2  0
  9 10  1  0
 10 11  2  0
  2 12  1  0
 12 13  2  0
 12 14  1  0
 11  6  1  0
M  END
>  <rName>  (542) 
Nva_45dehydro_5Ph

>  <PQ_SYMBOL>  (542) 
Nva_45dehydro_5Ph

>  <FULL_NAME>  (542) 
3-Styryl-L-Alanine

>  <IUPAC_CONDENSED>  (542) 
Nva(4,5-dehydro,5-Ph)

>  <IUPAC>  (542) 
(2S)-2-amino-5-phenylpent-4-enoic acid

>  <TYPE>  (542) 
Backbone

>  <CLASS>  (542) 
alpha

>  <ANALOG>  (542) 
X

>  <MOL_WT>  (542) 
191.23

>  <LOGP>  (542) 
1.5018

>  <TPSA>  (542) 
63.32000000000001

>  <POPULARITY>  (542) 
13.1

>  <PROTECTED>  (542) 
TRUE

>  <SMILES>  (542) 
N[C@@H](CC=Cc1(ccccc1))C(=O)O

>  <INCHIKEY>  (542) 
MCGSKGBMVBECNS-JTQLQIEISA-N

$$$$
Phe_4tBu
     RDKit          2D

 16 16  0  0  0  0  0  0  0  0999 V2000
   -2.5021    1.6866    0.0000 N   0  0  0  0  0  0  0  0  0  0  0  0
   -3.0051    0.2735    0.0000 C   0  0  0  0  0  0  0  0  0  0  0  0
   -2.0328   -0.8687    0.0000 C   0  0  0  0  0  0  0  0  0  0  0  0
   -0.5574   -0.5977    0.0000 C   0  0  0  0  0  0  0  0  0  0  0  0
   -0.0545    0.8155    0.0000 C   0  0  0  0  0  0  0  0  0  0  0  0
    1.4208    1.0865    0.0000 C   0  0  0  0  0  0  0  0  0  0  0  0
    2.3932   -0.0557    0.0000 C   0  0  0  0  0  0  0  0  0  0  0  0
    1.8902   -1.4688    0.0000 C   0  0  0  0  0  0  0  0  0  0  0  0
    0.4149   -1.7398    0.0000 C   0  0  0  0  0  0  0  0  0  0  0  0
    3.8685    0.2153    0.0000 C   0  0  0  0  0  0  0  0  0  0  0  0
    4.1395   -1.2600    0.0000 C   0  0  0  0  0  0  0  0  0  0  0  0
    3.5975    1.6906    0.0000 C   0  0  0  0  0  0  0  0  0  0  0  0
    5.3438    0.4863    0.0000 C   0  0  0  0  0  0  0  0  0  0  0  0
   -4.4804    0.0025    0.0000 C   0  0  0  0  0  0  0  0  0  0  0  0
   -4.9834   -1.4107    0.0000 O   0  0  0  0  0  0  0  0  0  0  0  0
   -5.4528    1.1446    0.0000 O   0  0  0  0  0  0  0  0  0  0  0  0
  2  1  1  1
  2  3  1  0
  3  4  1  0
  4  5  1  0
  5  6  2  0
  6  7  1  0
  7  8  2  0
  8  9  1  0
  7 10  1  0
 10 11  1  0
 10 12  1  0
 10 13  1  0
  2 14  1  0
 14 15  2  0
 14 16  1  0
  9  4  2  0
M  END
>  <rName>  (543) 
Phe_4tBu

>  <PQ_SYMBOL>  (543) 
Phe_4tBu

>  <FULL_NAME>  (543) 
4-tert-Butyl-L-Phenylalanine

>  <IUPAC_CONDENSED>  (543) 
Phe(4-tBu)

>  <IUPAC>  (543) 
(2S)-2-amino-3-(4-(tert-butyl)phenyl)propanoic acid

>  <TYPE>  (543) 
Backbone

>  <CLASS>  (543) 
alpha

>  <ANALOG>  (543) 
Phe

>  <MOL_WT>  (543) 
221.29999999999995

>  <LOGP>  (543) 
1.9385000000000001

>  <TPSA>  (543) 
63.32000000000001

>  <POPULARITY>  (543) 
12.4

>  <PROTECTED>  (543) 
TRUE

>  <SMILES>  (543) 
N[C@@H](Cc1(ccc(cc1)C(C)(C)C))C(=O)O

>  <INCHIKEY>  (543) 
CSJZKSXYLTYFPU-NSHDSACASA-N

$$$$
Gly_thien3yl
     RDKit          2D

 10 10  0  0  0  0  0  0  0  0999 V2000
   -1.2726   -2.0834    0.0000 N   0  0  0  0  0  0  0  0  0  0  0  0
   -0.8797   -0.6358    0.0000 C   0  0  0  0  0  0  0  0  0  0  0  0
    0.5705   -0.2522    0.0000 C   0  0  0  0  0  0  0  0  0  0  0  0
    1.7331   -1.2000    0.0000 C   0  0  0  0  0  0  0  0  0  0  0  0
    2.9938   -0.3872    0.0000 C   0  0  0  0  0  0  0  0  0  0  0  0
    2.6103    1.0630    0.0000 S   0  0  0  0  0  0  0  0  0  0  0  0
    1.1126    1.1464    0.0000 C   0  0  0  0  0  0  0  0  0  0  0  0
   -1.9369    0.4284    0.0000 C   0  0  0  0  0  0  0  0  0  0  0  0
   -1.5439    1.8760    0.0000 O   0  0  0  0  0  0  0  0  0  0  0  0
   -3.3870    0.0449    0.0000 O   0  0  0  0  0  0  0  0  0  0  0  0
  2  1  1  6
  2  3  1  0
  3  4  1  0
  4  5  2  0
  5  6  1  0
  6  7  1  0
  2  8  1  0
  8  9  2  0
  8 10  1  0
  7  3  2  0
M  END
>  <rName>  (544) 
Gly_thien3yl

>  <PQ_SYMBOL>  (544) 
Gly_thien3yl

>  <FULL_NAME>  (544) 
L-alpha-(3-Thienyl)glycine

>  <IUPAC_CONDENSED>  (544) 
Gly(thien-3-yl)

>  <IUPAC>  (544) 
(2S)-2-amino-2-(thiophen-3-yl)acetic acid

>  <TYPE>  (544) 
Backbone

>  <CLASS>  (544) 
alpha

>  <ANALOG>  (544) 
X

>  <MOL_WT>  (544) 
157.194

>  <LOGP>  (544) 
0.8325000000000002

>  <TPSA>  (544) 
63.32000000000001

>  <POPULARITY>  (544) 
5.2

>  <PROTECTED>  (544) 
TRUE

>  <SMILES>  (544) 
N[C@@H](c1(ccsc1))C(=O)O

>  <INCHIKEY>  (544) 
BVGBBSAQOQTNGF-YFKPBYRVSA-N

$$$$
3Thi
     RDKit          2D

 11 11  0  0  0  0  0  0  0  0999 V2000
   -0.9461    1.6947    0.0000 N   0  0  0  0  0  0  0  0  0  0  0  0
   -1.3100    0.2395    0.0000 C   0  0  0  0  0  0  0  0  0  0  0  0
   -0.2317   -0.8032    0.0000 C   0  0  0  0  0  0  0  0  0  0  0  0
    1.2105   -0.3908    0.0000 C   0  0  0  0  0  0  0  0  0  0  0  0
    2.3919   -1.3151    0.0000 C   0  0  0  0  0  0  0  0  0  0  0  0
    3.6360   -0.4772    0.0000 C   0  0  0  0  0  0  0  0  0  0  0  0
    3.2236    0.9650    0.0000 S   0  0  0  0  0  0  0  0  0  0  0  0
    1.7245    1.0184    0.0000 C   0  0  0  0  0  0  0  0  0  0  0  0
   -2.7522   -0.1729    0.0000 C   0  0  0  0  0  0  0  0  0  0  0  0
   -3.1161   -1.6281    0.0000 O   0  0  0  0  0  0  0  0  0  0  0  0
   -3.8304    0.8698    0.0000 O   0  0  0  0  0  0  0  0  0  0  0  0
  2  1  1  1
  2  3  1  0
  3  4  1  0
  4  5  1  0
  5  6  2  0
  6  7  1  0
  7  8  1  0
  2  9  1  0
  9 10  2  0
  9 11  1  0
  8  4  2  0
M  END
>  <rName>  (545) 
3Thi

>  <PQ_SYMBOL>  (545) 
3Thi

>  <FULL_NAME>  (545) 
3-(3-thienyl)-L-Alanine

>  <IUPAC_CONDENSED>  (545) 
3Thi

>  <IUPAC>  (545) 
(2S)-2-amino-3-(thiophen-3-yl)propanoic acid

>  <TYPE>  (545) 
Backbone

>  <CLASS>  (545) 
alpha

>  <ANALOG>  (545) 
Phe

>  <MOL_WT>  (545) 
171.22099999999998

>  <LOGP>  (545) 
0.7025000000000001

>  <TPSA>  (545) 
63.32000000000001

>  <POPULARITY>  (545) 
17.9

>  <PROTECTED>  (545) 
TRUE

>  <SMILES>  (545) 
N[C@@H](Cc1(ccsc1))C(=O)O

>  <INCHIKEY>  (545) 
VOIZSAUUYAGTMS-LURJTMIESA-N

$$$$
2Thi
     RDKit          2D

 11 11  0  0  0  0  0  0  0  0999 V2000
   -0.9461    1.6947    0.0000 N   0  0  0  0  0  0  0  0  0  0  0  0
   -1.3100    0.2395    0.0000 C   0  0  0  0  0  0  0  0  0  0  0  0
   -0.2317   -0.8032    0.0000 C   0  0  0  0  0  0  0  0  0  0  0  0
    1.2105   -0.3908    0.0000 C   0  0  0  0  0  0  0  0  0  0  0  0
    2.3919   -1.3151    0.0000 C   0  0  0  0  0  0  0  0  0  0  0  0
    3.6360   -0.4772    0.0000 C   0  0  0  0  0  0  0  0  0  0  0  0
    3.2236    0.9650    0.0000 C   0  0  0  0  0  0  0  0  0  0  0  0
    1.7245    1.0184    0.0000 S   0  0  0  0  0  0  0  0  0  0  0  0
   -2.7522   -0.1729    0.0000 C   0  0  0  0  0  0  0  0  0  0  0  0
   -3.1161   -1.6281    0.0000 O   0  0  0  0  0  0  0  0  0  0  0  0
   -3.8304    0.8698    0.0000 O   0  0  0  0  0  0  0  0  0  0  0  0
  2  1  1  1
  2  3  1  0
  3  4  1  0
  4  5  2  0
  5  6  1  0
  6  7  2  0
  7  8  1  0
  2  9  1  0
  9 10  2  0
  9 11  1  0
  8  4  1  0
M  END
>  <rName>  (546) 
2Thi

>  <PQ_SYMBOL>  (546) 
2Thi

>  <FULL_NAME>  (546) 
3-(2-thienyl)-L-Alanine

>  <IUPAC_CONDENSED>  (546) 
2Thi

>  <IUPAC>  (546) 
(2S)-2-amino-3-(thiophen-2-yl)propanoic acid

>  <TYPE>  (546) 
Backbone

>  <CLASS>  (546) 
alpha

>  <ANALOG>  (546) 
Phe

>  <MOL_WT>  (546) 
171.22099999999998

>  <LOGP>  (546) 
0.7025000000000001

>  <TPSA>  (546) 
63.32000000000001

>  <POPULARITY>  (546) 
30.6

>  <PROTECTED>  (546) 
TRUE

>  <SMILES>  (546) 
N[C@@H](Cc1(cccs1))C(=O)O

>  <INCHIKEY>  (546) 
WTOFYLAWDLQMBZ-LURJTMIESA-N

$$$$
Thr_PO3H2
     RDKit          2D

 12 11  0  0  0  0  0  0  0  0999 V2000
   -0.0306   -1.5204    0.0000 N   0  0  0  0  0  0  0  0  0  0  0  0
   -0.8599   -0.2705    0.0000 C   0  0  0  0  0  0  0  0  0  0  0  0
   -0.1920    1.0727    0.0000 C   0  0  0  0  0  0  0  0  0  0  0  0
    1.3051    1.1659    0.0000 O   0  0  0  0  0  0  0  0  0  0  0  0
    2.1343   -0.0841    0.0000 P   0  0  0  0  0  0  0  0  0  0  0  0
    3.3843    0.7452    0.0000 O   0  0  0  0  0  0  0  0  0  0  0  0
    0.8844   -0.9133    0.0000 O   0  0  0  0  0  0  0  0  0  0  0  0
    2.9636   -1.3340    0.0000 O   0  0  0  0  0  0  0  0  0  0  0  0
   -1.0213    2.3226    0.0000 C   0  0  0  0  0  0  0  0  0  0  0  0
   -2.3570   -0.3637    0.0000 C   0  0  0  0  0  0  0  0  0  0  0  0
   -3.1862    0.8863    0.0000 O   0  0  0  0  0  0  0  0  0  0  0  0
   -3.0248   -1.7068    0.0000 O   0  0  0  0  0  0  0  0  0  0  0  0
  2  1  1  6
  2  3  1  0
  3  4  1  0
  4  5  1  0
  5  6  2  0
  5  7  1  0
  5  8  1  0
  3  9  1  1
  2 10  1  0
 10 11  2  0
 10 12  1  0
M  END
>  <rName>  (547) 
Thr_PO3H2

>  <PQ_SYMBOL>  (547) 
Thr_PO3H2

>  <FULL_NAME>  (547) 
O-Phospho-L-Threonine, (2S,3R)-O-Phosphothreonine

>  <IUPAC_CONDENSED>  (547) 
Thr(PO3H2)

>  <IUPAC>  (547) 
(2R,3S)-3-amino-4-hydroxy-4-oxobutan-2-yl dihydrogen phosphate

>  <TYPE>  (547) 
Backbone

>  <CLASS>  (547) 
alpha

>  <ANALOG>  (547) 
Thr

>  <MOL_WT>  (547) 
199.099

>  <LOGP>  (547) 
-1.1039000000000005

>  <TPSA>  (547) 
130.07999999999998

>  <POPULARITY>  (547) 
49.5

>  <PROTECTED>  (547) 
TRUE

>  <SMILES>  (547) 
N[C@@H]([C@H](OP(=O)(O)O)C)C(=O)O

>  <INCHIKEY>  (547) 
USRGIUJOYOXOQJ-GBXIJSLDSA-N

$$$$
Trp_6OH
     RDKit          2D

 16 17  0  0  0  0  0  0  0  0999 V2000
   -3.0545   -1.6426    0.0000 N   0  0  0  0  0  0  0  0  0  0  0  0
   -2.9369   -0.1473    0.0000 C   0  0  0  0  0  0  0  0  0  0  0  0
   -1.5831    0.4986    0.0000 C   0  0  0  0  0  0  0  0  0  0  0  0
   -0.3468   -0.3509    0.0000 C   0  0  0  0  0  0  0  0  0  0  0  0
   -0.3075   -1.8504    0.0000 C   0  0  0  0  0  0  0  0  0  0  0  0
    1.1308   -2.2763    0.0000 N   0  0  0  0  0  0  0  0  0  0  0  0
    1.9803   -1.0400    0.0000 C   0  0  0  0  0  0  0  0  0  0  0  0
    3.4675   -0.8441    0.0000 C   0  0  0  0  0  0  0  0  0  0  0  0
    4.0414    0.5417    0.0000 C   0  0  0  0  0  0  0  0  0  0  0  0
    5.5285    0.7376    0.0000 O   0  0  0  0  0  0  0  0  0  0  0  0
    3.1281    1.7317    0.0000 C   0  0  0  0  0  0  0  0  0  0  0  0
    1.6410    1.5358    0.0000 C   0  0  0  0  0  0  0  0  0  0  0  0
    1.0671    0.1499    0.0000 C   0  0  0  0  0  0  0  0  0  0  0  0
   -4.1732    0.7023    0.0000 C   0  0  0  0  0  0  0  0  0  0  0  0
   -4.0556    2.1976    0.0000 O   0  0  0  0  0  0  0  0  0  0  0  0
   -5.5270    0.0564    0.0000 O   0  0  0  0  0  0  0  0  0  0  0  0
  2  1  1  6
  2  3  1  0
  3  4  1  0
  4  5  2  0
  5  6  1  0
  6  7  1  0
  7  8  1  0
  8  9  2  0
  9 10  1  0
  9 11  1  0
 11 12  2  0
 12 13  1  0
  2 14  1  0
 14 15  2  0
 14 16  1  0
 13  7  2  0
 13  4  1  0
M  END
>  <rName>  (548) 
Trp_6OH

>  <PQ_SYMBOL>  (548) 
Trp_6OH

>  <FULL_NAME>  (548) 
6-Hydroxy-L-Tryptophan

>  <IUPAC_CONDENSED>  (548) 
Trp(6-OH)

>  <IUPAC>  (548) 
(2S)-2-amino-3-(6-hydroxy-1H-indol-3-yl)propanoic acid

>  <TYPE>  (548) 
Backbone

>  <CLASS>  (548) 
alpha

>  <ANALOG>  (548) 
Trp

>  <MOL_WT>  (548) 
220.22799999999998

>  <LOGP>  (548) 
0.8279000000000003

>  <TPSA>  (548) 
99.34000000000002

>  <POPULARITY>  (548) 
21.8

>  <PROTECTED>  (548) 
TRUE

>  <SMILES>  (548) 
N[C@@H](Cc2(c[nH]c1(cc(O)ccc12)))C(=O)O

>  <INCHIKEY>  (548) 
NXANGIZFHQQBCC-VIFPVBQESA-N

$$$$
Tyr_3NH2
     RDKit          2D

 14 14  0  0  0  0  0  0  0  0999 V2000
   -2.0094    1.6916    0.0000 N   0  0  0  0  0  0  0  0  0  0  0  0
   -2.3243    0.2250    0.0000 C   0  0  0  0  0  0  0  0  0  0  0  0
   -1.2116   -0.7809    0.0000 C   0  0  0  0  0  0  0  0  0  0  0  0
    0.2159   -0.3203    0.0000 C   0  0  0  0  0  0  0  0  0  0  0  0
    0.5308    1.1463    0.0000 C   0  0  0  0  0  0  0  0  0  0  0  0
    1.9583    1.6069    0.0000 C   0  0  0  0  0  0  0  0  0  0  0  0
    3.0710    0.6009    0.0000 C   0  0  0  0  0  0  0  0  0  0  0  0
    4.4985    1.0615    0.0000 O   0  0  0  0  0  0  0  0  0  0  0  0
    2.7561   -0.8657    0.0000 C   0  0  0  0  0  0  0  0  0  0  0  0
    3.8688   -1.8716    0.0000 N   0  0  0  0  0  0  0  0  0  0  0  0
    1.3286   -1.3263    0.0000 C   0  0  0  0  0  0  0  0  0  0  0  0
   -3.7518   -0.2356    0.0000 C   0  0  0  0  0  0  0  0  0  0  0  0
   -4.0666   -1.7022    0.0000 O   0  0  0  0  0  0  0  0  0  0  0  0
   -4.8644    0.7704    0.0000 O   0  0  0  0  0  0  0  0  0  0  0  0
  2  1  1  1
  2  3  1  0
  3  4  1  0
  4  5  1  0
  5  6  2  0
  6  7  1  0
  7  8  1  0
  7  9  2  0
  9 10  1  0
  9 11  1  0
  2 12  1  0
 12 13  2  0
 12 14  1  0
 11  4  2  0
M  END
>  <rName>  (549) 
Tyr_3NH2

>  <PQ_SYMBOL>  (549) 
Tyr_3NH2

>  <FULL_NAME>  (549) 
3-Amino-L-Tyrosine

>  <IUPAC_CONDENSED>  (549) 
Tyr(3-NH2)

>  <IUPAC>  (549) 
(2S)-2-amino-3-(3-amino-4-hydroxyphenyl)propanoic acid

>  <TYPE>  (549) 
Backbone

>  <CLASS>  (549) 
alpha

>  <ANALOG>  (549) 
Tyr

>  <MOL_WT>  (549) 
196.20599999999996

>  <LOGP>  (549) 
-0.07120000000000015

>  <TPSA>  (549) 
109.57000000000001

>  <POPULARITY>  (549) 
23.2

>  <PROTECTED>  (549) 
TRUE

>  <SMILES>  (549) 
N[C@@H](Cc1(ccc(O)c(N)c1))C(=O)O

>  <INCHIKEY>  (549) 
POGSZHUEECCEAP-ZETCQYMHSA-N

$$$$
Tza
     RDKit          2D

 11 11  0  0  0  0  0  0  0  0999 V2000
   -0.9461    1.6947    0.0000 N   0  0  0  0  0  0  0  0  0  0  0  0
   -1.3100    0.2395    0.0000 C   0  0  0  0  0  0  0  0  0  0  0  0
   -0.2317   -0.8032    0.0000 C   0  0  0  0  0  0  0  0  0  0  0  0
    1.2105   -0.3908    0.0000 C   0  0  0  0  0  0  0  0  0  0  0  0
    2.3919   -1.3151    0.0000 C   0  0  0  0  0  0  0  0  0  0  0  0
    3.6360   -0.4772    0.0000 S   0  0  0  0  0  0  0  0  0  0  0  0
    3.2236    0.9650    0.0000 C   0  0  0  0  0  0  0  0  0  0  0  0
    1.7245    1.0184    0.0000 N   0  0  0  0  0  0  0  0  0  0  0  0
   -2.7522   -0.1729    0.0000 C   0  0  0  0  0  0  0  0  0  0  0  0
   -3.1161   -1.6281    0.0000 O   0  0  0  0  0  0  0  0  0  0  0  0
   -3.8304    0.8698    0.0000 O   0  0  0  0  0  0  0  0  0  0  0  0
  2  1  1  1
  2  3  1  0
  3  4  1  0
  4  5  2  0
  5  6  1  0
  6  7  1  0
  7  8  2  0
  2  9  1  0
  9 10  2  0
  9 11  1  0
  8  4  1  0
M  END
>  <rName>  (550) 
Tza

>  <PQ_SYMBOL>  (550) 
Tza

>  <FULL_NAME>  (550) 
3-(4-Thiazolyl)-L-Alanine

>  <IUPAC_CONDENSED>  (550) 
Tza

>  <IUPAC>  (550) 
(2S)-2-amino-3-(thiazol-4-yl)propanoic acid

>  <TYPE>  (550) 
Backbone

>  <CLASS>  (550) 
alpha

>  <ANALOG>  (550) 
Phe

>  <MOL_WT>  (550) 
172.209

>  <LOGP>  (550) 
0.09749999999999986

>  <TPSA>  (550) 
76.21

>  <POPULARITY>  (550) 
21

>  <PROTECTED>  (550) 
TRUE

>  <SMILES>  (550) 
N[C@@H](Cc1(cscn1))C(=O)O

>  <INCHIKEY>  (550) 
WBZIGVCQRXJYQD-YFKPBYRVSA-N

$$$$
Aad
     RDKit          2D

 11 10  0  0  0  0  0  0  0  0999 V2000
   -1.6269    1.8430    0.0000 N   0  0  0  0  0  0  0  0  0  0  0  0
   -1.7489    0.3480    0.0000 C   0  0  0  0  0  0  0  0  0  0  0  0
   -0.5152   -0.5052    0.0000 C   0  0  0  0  0  0  0  0  0  0  0  0
    0.8406    0.1366    0.0000 C   0  0  0  0  0  0  0  0  0  0  0  0
    2.0743   -0.7166    0.0000 C   0  0  0  0  0  0  0  0  0  0  0  0
    3.4300   -0.0748    0.0000 C   0  0  0  0  0  0  0  0  0  0  0  0
    3.5521    1.4203    0.0000 O   0  0  0  0  0  0  0  0  0  0  0  0
    4.6637   -0.9280    0.0000 O   0  0  0  0  0  0  0  0  0  0  0  0
   -3.1047   -0.2938    0.0000 C   0  0  0  0  0  0  0  0  0  0  0  0
   -3.2267   -1.7889    0.0000 O   0  0  0  0  0  0  0  0  0  0  0  0
   -4.3384    0.5594    0.0000 O   0  0  0  0  0  0  0  0  0  0  0  0
  2  1  1  1
  2  3  1  0
  3  4  1  0
  4  5  1  0
  5  6  1  0
  6  7  2  0
  6  8  1  0
  2  9  1  0
  9 10  2  0
  9 11  1  0
M  END
>  <rName>  (551) 
Aad

>  <PQ_SYMBOL>  (551) 
Aad

>  <FULL_NAME>  (551) 
(2S)-2-Aminohexanedioic acid

>  <IUPAC_CONDENSED>  (551) 
Aad

>  <IUPAC>  (551) 
(2S)-2-aminohexanedioic acid

>  <TYPE>  (551) 
Backbone

>  <CLASS>  (551) 
alpha

>  <ANALOG>  (551) 
X

>  <MOL_WT>  (551) 
161.15699999999998

>  <LOGP>  (551) 
-0.3468000000000003

>  <TPSA>  (551) 
100.62000000000002

>  <POPULARITY>  (551) 
32.8

>  <PROTECTED>  (551) 
TRUE

>  <SMILES>  (551) 
N[C@@H](CCCC(=O)O)C(=O)O

>  <INCHIKEY>  (551) 
OYIFNHCXNCRBQI-BYPYZUCNSA-N

$$$$
D-Phg
     RDKit          2D

 11 11  0  0  0  0  0  0  0  0999 V2000
   -1.6031   -2.0851    0.0000 N   0  0  0  0  0  0  0  0  0  0  0  0
   -1.1770   -0.6469    0.0000 C   0  0  0  0  0  0  0  0  0  0  0  0
    0.2816   -0.2968    0.0000 C   0  0  0  0  0  0  0  0  0  0  0  0
    0.7077    1.1415    0.0000 C   0  0  0  0  0  0  0  0  0  0  0  0
    2.1662    1.4916    0.0000 C   0  0  0  0  0  0  0  0  0  0  0  0
    3.1987    0.4035    0.0000 C   0  0  0  0  0  0  0  0  0  0  0  0
    2.7726   -1.0347    0.0000 C   0  0  0  0  0  0  0  0  0  0  0  0
    1.3141   -1.3849    0.0000 C   0  0  0  0  0  0  0  0  0  0  0  0
   -2.2095    0.4412    0.0000 C   0  0  0  0  0  0  0  0  0  0  0  0
   -1.7834    1.8794    0.0000 O   0  0  0  0  0  0  0  0  0  0  0  0
   -3.6680    0.0911    0.0000 O   0  0  0  0  0  0  0  0  0  0  0  0
  2  1  1  1
  2  3  1  0
  3  4  2  0
  4  5  1  0
  5  6  2  0
  6  7  1  0
  7  8  2  0
  2  9  1  0
  9 10  2  0
  9 11  1  0
  8  3  1  0
M  END
>  <rName>  (552) 
D-Phg

>  <PQ_SYMBOL>  (552) 
D-Phg

>  <FULL_NAME>  (552) 
D-2-Phenylglycine

>  <IUPAC_CONDENSED>  (552) 
D-Phg

>  <IUPAC>  (552) 
(2R)-2-amino-2-phenylacetic acid

>  <TYPE>  (552) 
Backbone

>  <CLASS>  (552) 
alpha

>  <ANALOG>  (552) 
X

>  <MOL_WT>  (552) 
151.16499999999996

>  <LOGP>  (552) 
0.7710000000000001

>  <TPSA>  (552) 
63.32000000000001

>  <POPULARITY>  (552) 
32.4

>  <PROTECTED>  (552) 
TRUE

>  <SMILES>  (552) 
N[C@H](c1(ccccc1))C(=O)O

>  <INCHIKEY>  (552) 
ZGUNAGUHMKGQNY-SSDOTTSWSA-N

$$$$
D-Tyr_Me
     RDKit          2D

 14 14  0  0  0  0  0  0  0  0999 V2000
   -2.0397    1.6757    0.0000 N   0  0  0  0  0  0  0  0  0  0  0  0
   -2.4395    0.2299    0.0000 C   0  0  0  0  0  0  0  0  0  0  0  0
   -1.3873   -0.8392    0.0000 C   0  0  0  0  0  0  0  0  0  0  0  0
    0.0646   -0.4625    0.0000 C   0  0  0  0  0  0  0  0  0  0  0  0
    0.4644    0.9832    0.0000 C   0  0  0  0  0  0  0  0  0  0  0  0
    1.9164    1.3598    0.0000 C   0  0  0  0  0  0  0  0  0  0  0  0
    2.9685    0.2907    0.0000 C   0  0  0  0  0  0  0  0  0  0  0  0
    4.4205    0.6674    0.0000 O   0  0  0  0  0  0  0  0  0  0  0  0
    5.4726   -0.4017    0.0000 C   0  0  0  0  0  0  0  0  0  0  0  0
    2.5687   -1.1550    0.0000 C   0  0  0  0  0  0  0  0  0  0  0  0
    1.1168   -1.5316    0.0000 C   0  0  0  0  0  0  0  0  0  0  0  0
   -3.8914   -0.1467    0.0000 C   0  0  0  0  0  0  0  0  0  0  0  0
   -4.2912   -1.5924    0.0000 O   0  0  0  0  0  0  0  0  0  0  0  0
   -4.9436    0.9224    0.0000 O   0  0  0  0  0  0  0  0  0  0  0  0
  2  1  1  6
  2  3  1  0
  3  4  1  0
  4  5  1  0
  5  6  2  0
  6  7  1  0
  7  8  1  0
  8  9  1  0
  7 10  2  0
 10 11  1  0
  2 12  1  0
 12 13  2  0
 12 14  1  0
 11  4  2  0
M  END
>  <rName>  (553) 
D-Tyr_Me

>  <PQ_SYMBOL>  (553) 
D-Tyr_Me

>  <FULL_NAME>  (553) 
O-Methyl-D-Tyrosine

>  <IUPAC_CONDENSED>  (553) 
D-Tyr(Me)

>  <IUPAC>  (553) 
(2R)-2-amino-3-(4-methoxyphenyl)propanoic acid

>  <TYPE>  (553) 
Backbone

>  <CLASS>  (553) 
alpha

>  <ANALOG>  (553) 
Tyr

>  <MOL_WT>  (553) 
195.218

>  <LOGP>  (553) 
0.6496

>  <TPSA>  (553) 
72.55

>  <POPULARITY>  (553) 
21

>  <PROTECTED>  (553) 
TRUE

>  <SMILES>  (553) 
N[C@H](Cc1(ccc(OC)cc1))C(=O)O

>  <INCHIKEY>  (553) 
GEYBMYRBIABFTA-SECBINFHSA-N

$$$$
D-Gly_allyl
     RDKit          2D

  8  7  0  0  0  0  0  0  0  0999 V2000
   -0.2517   -1.8862    0.0000 N   0  0  0  0  0  0  0  0  0  0  0  0
   -0.3100   -0.3873    0.0000 C   0  0  0  0  0  0  0  0  0  0  0  0
    0.9590    0.4126    0.0000 C   0  0  0  0  0  0  0  0  0  0  0  0
    2.2862   -0.2864    0.0000 C   0  0  0  0  0  0  0  0  0  0  0  0
    3.5551    0.5134    0.0000 C   0  0  0  0  0  0  0  0  0  0  0  0
   -1.6371    0.3117    0.0000 C   0  0  0  0  0  0  0  0  0  0  0  0
   -1.6954    1.8105    0.0000 O   0  0  0  0  0  0  0  0  0  0  0  0
   -2.9061   -0.4882    0.0000 O   0  0  0  0  0  0  0  0  0  0  0  0
  2  1  1  1
  2  3  1  0
  3  4  1  0
  4  5  2  0
  2  6  1  0
  6  7  2  0
  6  8  1  0
M  END
>  <rName>  (554) 
D-Gly_allyl

>  <PQ_SYMBOL>  (554) 
D-Gly_allyl

>  <FULL_NAME>  (554) 
D-Allylglycine

>  <IUPAC_CONDENSED>  (554) 
D-Gly(allyl)

>  <IUPAC>  (554) 
(2R)-2-aminopent-4-enoic acid

>  <TYPE>  (554) 
Backbone

>  <CLASS>  (554) 
alpha

>  <ANALOG>  (554) 
Val

>  <MOL_WT>  (554) 
115.13199999999999

>  <LOGP>  (554) 
-0.025600000000000345

>  <TPSA>  (554) 
63.32000000000001

>  <POPULARITY>  (554) 
20.2

>  <PROTECTED>  (554) 
TRUE

>  <SMILES>  (554) 
N[C@H](CC=C)C(=O)O

>  <INCHIKEY>  (554) 
WNNNWFKQCKFSDK-SCSAIBSYSA-N

$$$$
D-Phe_2CN
     RDKit          2D

 14 14  0  0  0  0  0  0  0  0999 V2000
   -1.7887    1.9295    0.0000 N   0  0  0  0  0  0  0  0  0  0  0  0
   -1.9182    0.4351    0.0000 C   0  0  0  0  0  0  0  0  0  0  0  0
   -0.6887   -0.4243    0.0000 C   0  0  0  0  0  0  0  0  0  0  0  0
    0.6702    0.2108    0.0000 C   0  0  0  0  0  0  0  0  0  0  0  0
    0.7997    1.7052    0.0000 C   0  0  0  0  0  0  0  0  0  0  0  0
    2.1586    2.3403    0.0000 C   0  0  0  0  0  0  0  0  0  0  0  0
    3.3881    1.4809    0.0000 C   0  0  0  0  0  0  0  0  0  0  0  0
    3.2586   -0.0135    0.0000 C   0  0  0  0  0  0  0  0  0  0  0  0
    1.8997   -0.6485    0.0000 C   0  0  0  0  0  0  0  0  0  0  0  0
    1.7702   -2.1429    0.0000 C   0  0  0  0  0  0  0  0  0  0  0  0
    1.6407   -3.6373    0.0000 N   0  0  0  0  0  0  0  0  0  0  0  0
   -3.2771   -0.2000    0.0000 C   0  0  0  0  0  0  0  0  0  0  0  0
   -3.4066   -1.6944    0.0000 O   0  0  0  0  0  0  0  0  0  0  0  0
   -4.5065    0.6593    0.0000 O   0  0  0  0  0  0  0  0  0  0  0  0
  2  1  1  6
  2  3  1  0
  3  4  1  0
  4  5  2  0
  5  6  1  0
  6  7  2  0
  7  8  1  0
  8  9  2  0
  9 10  1  0
 10 11  3  0
  2 12  1  0
 12 13  2  0
 12 14  1  0
  9  4  1  0
M  END
>  <rName>  (555) 
D-Phe_2CN

>  <PQ_SYMBOL>  (555) 
D-Phe_2CN

>  <FULL_NAME>  (555) 
2-Cyano-D-Phenylalanine

>  <IUPAC_CONDENSED>  (555) 
D-Phe(2-CN)

>  <IUPAC>  (555) 
(2R)-2-amino-3-(2-(nitrilomethyl)phenyl)propanoic acid

>  <TYPE>  (555) 
Backbone

>  <CLASS>  (555) 
alpha

>  <ANALOG>  (555) 
Phe

>  <MOL_WT>  (555) 
190.20199999999997

>  <LOGP>  (555) 
0.5126799999999998

>  <TPSA>  (555) 
87.11

>  <POPULARITY>  (555) 
7.3

>  <PROTECTED>  (555) 
TRUE

>  <SMILES>  (555) 
N[C@H](Cc1(ccccc1C#N))C(=O)O

>  <INCHIKEY>  (555) 
OCDHPLVCNWBKJN-SECBINFHSA-N

$$$$
D-Dip
     RDKit          2D

 18 19  0  0  0  0  0  0  0  0999 V2000
    0.8407   -2.9122    0.0000 N   0  0  0  0  0  0  0  0  0  0  0  0
   -0.2402   -1.8721    0.0000 C   0  0  0  0  0  0  0  0  0  0  0  0
    0.1201   -0.4160    0.0000 C   0  0  0  0  0  0  0  0  0  0  0  0
    1.5612    0.0000    0.0000 C   0  0  0  0  0  0  0  0  0  0  0  0
    2.6421   -1.0401    0.0000 C   0  0  0  0  0  0  0  0  0  0  0  0
    4.0833   -0.6240    0.0000 C   0  0  0  0  0  0  0  0  0  0  0  0
    4.4436    0.8321    0.0000 C   0  0  0  0  0  0  0  0  0  0  0  0
    3.3627    1.8721    0.0000 C   0  0  0  0  0  0  0  0  0  0  0  0
    1.9215    1.4561    0.0000 C   0  0  0  0  0  0  0  0  0  0  0  0
   -0.9608    0.6240    0.0000 C   0  0  0  0  0  0  0  0  0  0  0  0
   -0.6005    2.0801    0.0000 C   0  0  0  0  0  0  0  0  0  0  0  0
   -1.6813    3.1202    0.0000 C   0  0  0  0  0  0  0  0  0  0  0  0
   -3.1225    2.7042    0.0000 C   0  0  0  0  0  0  0  0  0  0  0  0
   -3.4828    1.2481    0.0000 C   0  0  0  0  0  0  0  0  0  0  0  0
   -2.4019    0.2080    0.0000 C   0  0  0  0  0  0  0  0  0  0  0  0
   -1.6813   -2.2881    0.0000 C   0  0  0  0  0  0  0  0  0  0  0  0
   -2.7622   -1.2481    0.0000 O   0  0  0  0  0  0  0  0  0  0  0  0
   -2.0416   -3.7442    0.0000 O   0  0  0  0  0  0  0  0  0  0  0  0
  2  1  1  1
  2  3  1  0
  3  4  1  0
  4  5  2  0
  5  6  1  0
  6  7  2  0
  7  8  1  0
  8  9  2  0
  3 10  1  0
 10 11  2  0
 11 12  1  0
 12 13  2  0
 13 14  1  0
 14 15  2  0
  2 16  1  0
 16 17  2  0
 16 18  1  0
  9  4  1  0
 15 10  1  0
M  END
>  <rName>  (556) 
D-Dip

>  <PQ_SYMBOL>  (556) 
D-Dip

>  <FULL_NAME>  (556) 
3,3-Diphenyl-D-Alanine

>  <IUPAC_CONDENSED>  (556) 
D-Dip

>  <IUPAC>  (556) 
(2R)-2-amino-3,3-diphenylpropanoic acid

>  <TYPE>  (556) 
Backbone

>  <CLASS>  (556) 
alpha

>  <ANALOG>  (556) 
Phe

>  <MOL_WT>  (556) 
241.29

>  <LOGP>  (556) 
2.2304

>  <TPSA>  (556) 
63.32000000000001

>  <POPULARITY>  (556) 
19

>  <PROTECTED>  (556) 
TRUE

>  <SMILES>  (556) 
N[C@H](C(c1(ccccc1))c2(ccccc2))C(=O)O

>  <INCHIKEY>  (556) 
PECGVEGMRUZOML-CQSZACIVSA-N

$$$$
D-Phe_2Me
     RDKit          2D

 13 13  0  0  0  0  0  0  0  0999 V2000
   -1.4864    1.8099    0.0000 N   0  0  0  0  0  0  0  0  0  0  0  0
   -1.7669    0.3364    0.0000 C   0  0  0  0  0  0  0  0  0  0  0  0
   -0.6311   -0.6433    0.0000 C   0  0  0  0  0  0  0  0  0  0  0  0
    0.7853   -0.1495    0.0000 C   0  0  0  0  0  0  0  0  0  0  0  0
    1.0658    1.3241    0.0000 C   0  0  0  0  0  0  0  0  0  0  0  0
    2.4822    1.8179    0.0000 C   0  0  0  0  0  0  0  0  0  0  0  0
    3.6181    0.8382    0.0000 C   0  0  0  0  0  0  0  0  0  0  0  0
    3.3376   -0.6353    0.0000 C   0  0  0  0  0  0  0  0  0  0  0  0
    1.9212   -1.1292    0.0000 C   0  0  0  0  0  0  0  0  0  0  0  0
    1.6407   -2.6027    0.0000 C   0  0  0  0  0  0  0  0  0  0  0  0
   -3.1833   -0.1575    0.0000 C   0  0  0  0  0  0  0  0  0  0  0  0
   -3.4638   -1.6310    0.0000 O   0  0  0  0  0  0  0  0  0  0  0  0
   -4.3192    0.8222    0.0000 O   0  0  0  0  0  0  0  0  0  0  0  0
  2  1  1  6
  2  3  1  0
  3  4  1  0
  4  5  2  0
  5  6  1  0
  6  7  2  0
  7  8  1  0
  8  9  2  0
  9 10  1  0
  2 11  1  0
 11 12  2  0
 11 13  1  0
  9  4  1  0
M  END
>  <rName>  (557) 
D-Phe_2Me

>  <PQ_SYMBOL>  (557) 
D-Phe_2Me

>  <FULL_NAME>  (557) 
2-Methyl-D-Phenylalanine

>  <IUPAC_CONDENSED>  (557) 
D-Phe(2-Me)

>  <IUPAC>  (557) 
(2R)-2-amino-3-(2-methylphenyl)propanoic acid

>  <TYPE>  (557) 
Backbone

>  <CLASS>  (557) 
alpha

>  <ANALOG>  (557) 
Phe

>  <MOL_WT>  (557) 
179.21899999999997

>  <LOGP>  (557) 
0.9494199999999999

>  <TPSA>  (557) 
63.32000000000001

>  <POPULARITY>  (557) 
16.6

>  <PROTECTED>  (557) 
TRUE

>  <SMILES>  (557) 
N[C@H](Cc1(ccccc1C))C(=O)O

>  <INCHIKEY>  (557) 
NHBKDLSKDKUGSB-SECBINFHSA-N

$$$$
D-Gly_thien2yl
     RDKit          2D

 10 10  0  0  0  0  0  0  0  0999 V2000
   -1.2726   -2.0834    0.0000 N   0  0  0  0  0  0  0  0  0  0  0  0
   -0.8797   -0.6358    0.0000 C   0  0  0  0  0  0  0  0  0  0  0  0
    0.5705   -0.2522    0.0000 C   0  0  0  0  0  0  0  0  0  0  0  0
    1.7331   -1.2000    0.0000 C   0  0  0  0  0  0  0  0  0  0  0  0
    2.9938   -0.3872    0.0000 C   0  0  0  0  0  0  0  0  0  0  0  0
    2.6103    1.0630    0.0000 C   0  0  0  0  0  0  0  0  0  0  0  0
    1.1126    1.1464    0.0000 S   0  0  0  0  0  0  0  0  0  0  0  0
   -1.9369    0.4284    0.0000 C   0  0  0  0  0  0  0  0  0  0  0  0
   -1.5439    1.8760    0.0000 O   0  0  0  0  0  0  0  0  0  0  0  0
   -3.3870    0.0449    0.0000 O   0  0  0  0  0  0  0  0  0  0  0  0
  2  1  1  1
  2  3  1  0
  3  4  2  0
  4  5  1  0
  5  6  2  0
  6  7  1  0
  2  8  1  0
  8  9  2  0
  8 10  1  0
  7  3  1  0
M  END
>  <rName>  (558) 
D-Gly_thien2yl

>  <PQ_SYMBOL>  (558) 
D-Gly_thien2yl

>  <FULL_NAME>  (558) 
D-alpha-(2-Thienyl)glycine

>  <IUPAC_CONDENSED>  (558) 
D-Gly(thien-2-yl)

>  <IUPAC>  (558) 
(2S)-2-amino-2-(thiophen-2-yl)acetic acid

>  <TYPE>  (558) 
Backbone

>  <CLASS>  (558) 
alpha

>  <ANALOG>  (558) 
X

>  <MOL_WT>  (558) 
157.194

>  <LOGP>  (558) 
0.8325000000000002

>  <TPSA>  (558) 
63.32000000000001

>  <POPULARITY>  (558) 
7.2

>  <PROTECTED>  (558) 
TRUE

>  <SMILES>  (558) 
N[C@H](c1(cccs1))C(=O)O

>  <INCHIKEY>  (558) 
XLMSKXASROPJNG-RXMQYKEDSA-N

$$$$
D-Phe_2OH
     RDKit          2D

 13 13  0  0  0  0  0  0  0  0999 V2000
   -1.4864    1.8099    0.0000 N   0  0  0  0  0  0  0  0  0  0  0  0
   -1.7669    0.3364    0.0000 C   0  0  0  0  0  0  0  0  0  0  0  0
   -0.6311   -0.6433    0.0000 C   0  0  0  0  0  0  0  0  0  0  0  0
    0.7853   -0.1495    0.0000 C   0  0  0  0  0  0  0  0  0  0  0  0
    1.0658    1.3241    0.0000 C   0  0  0  0  0  0  0  0  0  0  0  0
    2.4822    1.8179    0.0000 C   0  0  0  0  0  0  0  0  0  0  0  0
    3.6181    0.8382    0.0000 C   0  0  0  0  0  0  0  0  0  0  0  0
    3.3376   -0.6353    0.0000 C   0  0  0  0  0  0  0  0  0  0  0  0
    1.9212   -1.1292    0.0000 C   0  0  0  0  0  0  0  0  0  0  0  0
    1.6407   -2.6027    0.0000 O   0  0  0  0  0  0  0  0  0  0  0  0
   -3.1833   -0.1575    0.0000 C   0  0  0  0  0  0  0  0  0  0  0  0
   -3.4638   -1.6310    0.0000 O   0  0  0  0  0  0  0  0  0  0  0  0
   -4.3192    0.8222    0.0000 O   0  0  0  0  0  0  0  0  0  0  0  0
  2  1  1  6
  2  3  1  0
  3  4  1  0
  4  5  2  0
  5  6  1  0
  6  7  2  0
  7  8  1  0
  8  9  2  0
  9 10  1  0
  2 11  1  0
 11 12  2  0
 11 13  1  0
  9  4  1  0
M  END
>  <rName>  (559) 
D-Phe_2OH

>  <PQ_SYMBOL>  (559) 
D-Phe_2OH

>  <FULL_NAME>  (559) 
2-Hydroxy-D-Phenylalanine

>  <IUPAC_CONDENSED>  (559) 
D-Phe(2-OH)

>  <IUPAC>  (559) 
(2R)-2-amino-3-(2-hydroxyphenyl)propanoic acid

>  <TYPE>  (559) 
Backbone

>  <CLASS>  (559) 
alpha

>  <ANALOG>  (559) 
Tyr

>  <MOL_WT>  (559) 
181.19099999999997

>  <LOGP>  (559) 
0.3466

>  <TPSA>  (559) 
83.55

>  <POPULARITY>  (559) 
7.9

>  <PROTECTED>  (559) 
TRUE

>  <SMILES>  (559) 
N[C@H](Cc1(ccccc1O))C(=O)O

>  <INCHIKEY>  (559) 
WRFPVMFCRNYQNR-SSDOTTSWSA-N

$$$$
D-Phe_3CN
     RDKit          2D

 14 14  0  0  0  0  0  0  0  0999 V2000
   -2.3578    1.5845    0.0000 N   0  0  0  0  0  0  0  0  0  0  0  0
   -2.4110    0.0855    0.0000 C   0  0  0  0  0  0  0  0  0  0  0  0
   -1.1393   -0.7101    0.0000 C   0  0  0  0  0  0  0  0  0  0  0  0
    0.1855   -0.0066    0.0000 C   0  0  0  0  0  0  0  0  0  0  0  0
    0.2386    1.4925    0.0000 C   0  0  0  0  0  0  0  0  0  0  0  0
    1.5634    2.1960    0.0000 C   0  0  0  0  0  0  0  0  0  0  0  0
    2.8351    1.4004    0.0000 C   0  0  0  0  0  0  0  0  0  0  0  0
    2.7819   -0.0986    0.0000 C   0  0  0  0  0  0  0  0  0  0  0  0
    4.0535   -0.8942    0.0000 C   0  0  0  0  0  0  0  0  0  0  0  0
    5.3252   -1.6898    0.0000 N   0  0  0  0  0  0  0  0  0  0  0  0
    1.4571   -0.8021    0.0000 C   0  0  0  0  0  0  0  0  0  0  0  0
   -3.7358   -0.6180    0.0000 C   0  0  0  0  0  0  0  0  0  0  0  0
   -3.7889   -2.1171    0.0000 O   0  0  0  0  0  0  0  0  0  0  0  0
   -5.0074    0.1776    0.0000 O   0  0  0  0  0  0  0  0  0  0  0  0
  2  1  1  6
  2  3  1  0
  3  4  1  0
  4  5  2  0
  5  6  1  0
  6  7  2  0
  7  8  1  0
  8  9  1  0
  9 10  3  0
  8 11  2  0
  2 12  1  0
 12 13  2  0
 12 14  1  0
 11  4  1  0
M  END
>  <rName>  (560) 
D-Phe_3CN

>  <PQ_SYMBOL>  (560) 
D-Phe_3CN

>  <FULL_NAME>  (560) 
3-Cyano-D-Phenylalanine

>  <IUPAC_CONDENSED>  (560) 
D-Phe(3-CN)

>  <IUPAC>  (560) 
(2R)-2-amino-3-(3-(nitrilomethyl)phenyl)propanoic acid

>  <TYPE>  (560) 
Backbone

>  <CLASS>  (560) 
alpha

>  <ANALOG>  (560) 
Phe

>  <MOL_WT>  (560) 
190.20199999999997

>  <LOGP>  (560) 
0.5126800000000002

>  <TPSA>  (560) 
87.11

>  <POPULARITY>  (560) 
7.5

>  <PROTECTED>  (560) 
TRUE

>  <SMILES>  (560) 
N[C@H](Cc1(cccc(C#N)c1))C(=O)O

>  <INCHIKEY>  (560) 
ZHUOMTMPTNZOJE-SECBINFHSA-N

$$$$
D-3Thi
     RDKit          2D

 11 11  0  0  0  0  0  0  0  0999 V2000
   -0.9461    1.6947    0.0000 N   0  0  0  0  0  0  0  0  0  0  0  0
   -1.3100    0.2395    0.0000 C   0  0  0  0  0  0  0  0  0  0  0  0
   -0.2317   -0.8032    0.0000 C   0  0  0  0  0  0  0  0  0  0  0  0
    1.2105   -0.3908    0.0000 C   0  0  0  0  0  0  0  0  0  0  0  0
    2.3919   -1.3151    0.0000 C   0  0  0  0  0  0  0  0  0  0  0  0
    3.6360   -0.4772    0.0000 C   0  0  0  0  0  0  0  0  0  0  0  0
    3.2236    0.9650    0.0000 S   0  0  0  0  0  0  0  0  0  0  0  0
    1.7245    1.0184    0.0000 C   0  0  0  0  0  0  0  0  0  0  0  0
   -2.7522   -0.1729    0.0000 C   0  0  0  0  0  0  0  0  0  0  0  0
   -3.1161   -1.6281    0.0000 O   0  0  0  0  0  0  0  0  0  0  0  0
   -3.8304    0.8698    0.0000 O   0  0  0  0  0  0  0  0  0  0  0  0
  2  1  1  6
  2  3  1  0
  3  4  1  0
  4  5  1  0
  5  6  2  0
  6  7  1  0
  7  8  1  0
  2  9  1  0
  9 10  2  0
  9 11  1  0
  8  4  2  0
M  END
>  <rName>  (561) 
D-3Thi

>  <PQ_SYMBOL>  (561) 
D-3Thi

>  <FULL_NAME>  (561) 
3-(3-Thienyl)-D-Alanine

>  <IUPAC_CONDENSED>  (561) 
D-3Thi

>  <IUPAC>  (561) 
(2R)-2-amino-3-(thiophen-3-yl)propanoic acid

>  <TYPE>  (561) 
Backbone

>  <CLASS>  (561) 
alpha

>  <ANALOG>  (561) 
Phe

>  <MOL_WT>  (561) 
171.22099999999998

>  <LOGP>  (561) 
0.7025000000000001

>  <TPSA>  (561) 
63.32000000000001

>  <POPULARITY>  (561) 
10.5

>  <PROTECTED>  (561) 
TRUE

>  <SMILES>  (561) 
N[C@H](Cc1(ccsc1))C(=O)O

>  <INCHIKEY>  (561) 
VOIZSAUUYAGTMS-ZCFIWIBFSA-N

$$$$
D-Gly_thien3yl
     RDKit          2D

 10 10  0  0  0  0  0  0  0  0999 V2000
   -1.2726   -2.0834    0.0000 N   0  0  0  0  0  0  0  0  0  0  0  0
   -0.8797   -0.6358    0.0000 C   0  0  0  0  0  0  0  0  0  0  0  0
    0.5705   -0.2522    0.0000 C   0  0  0  0  0  0  0  0  0  0  0  0
    1.7331   -1.2000    0.0000 C   0  0  0  0  0  0  0  0  0  0  0  0
    2.9938   -0.3872    0.0000 C   0  0  0  0  0  0  0  0  0  0  0  0
    2.6103    1.0630    0.0000 S   0  0  0  0  0  0  0  0  0  0  0  0
    1.1126    1.1464    0.0000 C   0  0  0  0  0  0  0  0  0  0  0  0
   -1.9369    0.4284    0.0000 C   0  0  0  0  0  0  0  0  0  0  0  0
   -1.5439    1.8760    0.0000 O   0  0  0  0  0  0  0  0  0  0  0  0
   -3.3870    0.0449    0.0000 O   0  0  0  0  0  0  0  0  0  0  0  0
  2  1  1  1
  2  3  1  0
  3  4  1  0
  4  5  2  0
  5  6  1  0
  6  7  1  0
  2  8  1  0
  8  9  2  0
  8 10  1  0
  7  3  2  0
M  END
>  <rName>  (562) 
D-Gly_thien3yl

>  <PQ_SYMBOL>  (562) 
D-Gly_thien3yl

>  <FULL_NAME>  (562) 
D-alpha-(3-Thienyl)glycine

>  <IUPAC_CONDENSED>  (562) 
D-Gly(thien-3-yl)

>  <IUPAC>  (562) 
(2R)-2-amino-2-(thiophen-3-yl)acetic acid

>  <TYPE>  (562) 
Backbone

>  <CLASS>  (562) 
alpha

>  <ANALOG>  (562) 
X

>  <MOL_WT>  (562) 
157.194

>  <LOGP>  (562) 
0.8325000000000002

>  <TPSA>  (562) 
63.32000000000001

>  <POPULARITY>  (562) 
5.4

>  <PROTECTED>  (562) 
TRUE

>  <SMILES>  (562) 
N[C@H](c1(ccsc1))C(=O)O

>  <INCHIKEY>  (562) 
BVGBBSAQOQTNGF-RXMQYKEDSA-N

$$$$
D-Phe_4CN
     RDKit          2D

 14 14  0  0  0  0  0  0  0  0999 V2000
   -1.9640    1.7008    0.0000 N   0  0  0  0  0  0  0  0  0  0  0  0
   -2.4550    0.2835    0.0000 C   0  0  0  0  0  0  0  0  0  0  0  0
   -1.4730   -0.8504    0.0000 C   0  0  0  0  0  0  0  0  0  0  0  0
   -0.0000   -0.5669    0.0000 C   0  0  0  0  0  0  0  0  0  0  0  0
    0.4910    0.8504    0.0000 C   0  0  0  0  0  0  0  0  0  0  0  0
    1.9640    1.1339    0.0000 C   0  0  0  0  0  0  0  0  0  0  0  0
    2.9459    0.0000    0.0000 C   0  0  0  0  0  0  0  0  0  0  0  0
    4.4189    0.2835    0.0000 C   0  0  0  0  0  0  0  0  0  0  0  0
    5.8919    0.5669    0.0000 N   0  0  0  0  0  0  0  0  0  0  0  0
    2.4550   -1.4174    0.0000 C   0  0  0  0  0  0  0  0  0  0  0  0
    0.9820   -1.7008    0.0000 C   0  0  0  0  0  0  0  0  0  0  0  0
   -3.9279   -0.0000    0.0000 C   0  0  0  0  0  0  0  0  0  0  0  0
   -4.4189   -1.4174    0.0000 O   0  0  0  0  0  0  0  0  0  0  0  0
   -4.9099    1.1339    0.0000 O   0  0  0  0  0  0  0  0  0  0  0  0
  2  1  1  6
  2  3  1  0
  3  4  1  0
  4  5  1  0
  5  6  2  0
  6  7  1  0
  7  8  1  0
  8  9  3  0
  7 10  2  0
 10 11  1  0
  2 12  1  0
 12 13  2  0
 12 14  1  0
 11  4  2  0
M  END
>  <rName>  (563) 
D-Phe_4CN

>  <PQ_SYMBOL>  (563) 
D-Phe_4CN

>  <FULL_NAME>  (563) 
4-Cyano-D-Phenylalanine

>  <IUPAC_CONDENSED>  (563) 
D-Phe(4-CN)

>  <IUPAC>  (563) 
(2R)-2-amino-3-(4-(nitrilomethyl)phenyl)propanoic acid

>  <TYPE>  (563) 
Backbone

>  <CLASS>  (563) 
alpha

>  <ANALOG>  (563) 
Phe

>  <MOL_WT>  (563) 
190.202

>  <LOGP>  (563) 
0.5126800000000002

>  <TPSA>  (563) 
87.11

>  <POPULARITY>  (563) 
15.9

>  <PROTECTED>  (563) 
TRUE

>  <SMILES>  (563) 
N[C@H](Cc1(ccc(C#N)cc1))C(=O)O

>  <INCHIKEY>  (563) 
KWIPUXXIFQQMKN-SECBINFHSA-N

$$$$
D-Phe_4Me
     RDKit          2D

 13 13  0  0  0  0  0  0  0  0999 V2000
   -1.5766    1.6851    0.0000 N   0  0  0  0  0  0  0  0  0  0  0  0
   -2.0128    0.2500    0.0000 C   0  0  0  0  0  0  0  0  0  0  0  0
   -0.9880   -0.8454    0.0000 C   0  0  0  0  0  0  0  0  0  0  0  0
    0.4730   -0.5055    0.0000 C   0  0  0  0  0  0  0  0  0  0  0  0
    0.9092    0.9296    0.0000 C   0  0  0  0  0  0  0  0  0  0  0  0
    2.3702    1.2695    0.0000 C   0  0  0  0  0  0  0  0  0  0  0  0
    3.3950    0.1741    0.0000 C   0  0  0  0  0  0  0  0  0  0  0  0
    4.8560    0.5140    0.0000 C   0  0  0  0  0  0  0  0  0  0  0  0
    2.9588   -1.2611    0.0000 C   0  0  0  0  0  0  0  0  0  0  0  0
    1.4978   -1.6009    0.0000 C   0  0  0  0  0  0  0  0  0  0  0  0
   -3.4738   -0.0899    0.0000 C   0  0  0  0  0  0  0  0  0  0  0  0
   -3.9100   -1.5250    0.0000 O   0  0  0  0  0  0  0  0  0  0  0  0
   -4.4986    1.0055    0.0000 O   0  0  0  0  0  0  0  0  0  0  0  0
  2  1  1  6
  2  3  1  0
  3  4  1  0
  4  5  1  0
  5  6  2  0
  6  7  1  0
  7  8  1  0
  7  9  2  0
  9 10  1  0
  2 11  1  0
 11 12  2  0
 11 13  1  0
 10  4  2  0
M  END
>  <rName>  (564) 
D-Phe_4Me

>  <PQ_SYMBOL>  (564) 
D-Phe_4Me

>  <FULL_NAME>  (564) 
4-Methyl-D-Phenylalanine

>  <IUPAC_CONDENSED>  (564) 
D-Phe(4-Me)

>  <IUPAC>  (564) 
(2R)-2-amino-3-(4-methylphenyl)propanoic acid

>  <TYPE>  (564) 
Backbone

>  <CLASS>  (564) 
alpha

>  <ANALOG>  (564) 
Phe

>  <MOL_WT>  (564) 
179.21899999999997

>  <LOGP>  (564) 
0.9494199999999999

>  <TPSA>  (564) 
63.32000000000001

>  <POPULARITY>  (564) 
14.8

>  <PROTECTED>  (564) 
TRUE

>  <SMILES>  (564) 
N[C@H](Cc1(ccc(C)cc1))C(=O)O

>  <INCHIKEY>  (564) 
DQLHSFUMICQIMB-SECBINFHSA-N

$$$$
D-Phe_4tBu
     RDKit          2D

 16 16  0  0  0  0  0  0  0  0999 V2000
   -2.5021    1.6866    0.0000 N   0  0  0  0  0  0  0  0  0  0  0  0
   -3.0051    0.2735    0.0000 C   0  0  0  0  0  0  0  0  0  0  0  0
   -2.0328   -0.8687    0.0000 C   0  0  0  0  0  0  0  0  0  0  0  0
   -0.5574   -0.5977    0.0000 C   0  0  0  0  0  0  0  0  0  0  0  0
   -0.0545    0.8155    0.0000 C   0  0  0  0  0  0  0  0  0  0  0  0
    1.4208    1.0865    0.0000 C   0  0  0  0  0  0  0  0  0  0  0  0
    2.3932   -0.0557    0.0000 C   0  0  0  0  0  0  0  0  0  0  0  0
    1.8902   -1.4688    0.0000 C   0  0  0  0  0  0  0  0  0  0  0  0
    0.4149   -1.7398    0.0000 C   0  0  0  0  0  0  0  0  0  0  0  0
    3.8685    0.2153    0.0000 C   0  0  0  0  0  0  0  0  0  0  0  0
    4.1395   -1.2600    0.0000 C   0  0  0  0  0  0  0  0  0  0  0  0
    3.5975    1.6906    0.0000 C   0  0  0  0  0  0  0  0  0  0  0  0
    5.3438    0.4863    0.0000 C   0  0  0  0  0  0  0  0  0  0  0  0
   -4.4804    0.0025    0.0000 C   0  0  0  0  0  0  0  0  0  0  0  0
   -4.9834   -1.4107    0.0000 O   0  0  0  0  0  0  0  0  0  0  0  0
   -5.4528    1.1446    0.0000 O   0  0  0  0  0  0  0  0  0  0  0  0
  2  1  1  6
  2  3  1  0
  3  4  1  0
  4  5  1  0
  5  6  2  0
  6  7  1  0
  7  8  2  0
  8  9  1  0
  7 10  1  0
 10 11  1  0
 10 12  1  0
 10 13  1  0
  2 14  1  0
 14 15  2  0
 14 16  1  0
  9  4  2  0
M  END
>  <rName>  (565) 
D-Phe_4tBu

>  <PQ_SYMBOL>  (565) 
D-Phe_4tBu

>  <FULL_NAME>  (565) 
4-tert-Butyl-D-Phenylalanine

>  <IUPAC_CONDENSED>  (565) 
D-Phe(4-tBu)

>  <IUPAC>  (565) 
(2R)-2-amino-3-(4-(tert-butyl)phenyl)propanoic acid

>  <TYPE>  (565) 
Backbone

>  <CLASS>  (565) 
alpha

>  <ANALOG>  (565) 
Phe

>  <MOL_WT>  (565) 
221.29999999999995

>  <LOGP>  (565) 
1.9385000000000001

>  <TPSA>  (565) 
63.32000000000001

>  <POPULARITY>  (565) 
9.5

>  <PROTECTED>  (565) 
TRUE

>  <SMILES>  (565) 
N[C@H](Cc1(ccc(cc1)C(C)(C)C))C(=O)O

>  <INCHIKEY>  (565) 
CSJZKSXYLTYFPU-LLVKDONJSA-N

$$$$
D-Tza
     RDKit          2D

 11 11  0  0  0  0  0  0  0  0999 V2000
   -0.9461    1.6947    0.0000 N   0  0  0  0  0  0  0  0  0  0  0  0
   -1.3100    0.2395    0.0000 C   0  0  0  0  0  0  0  0  0  0  0  0
   -0.2317   -0.8032    0.0000 C   0  0  0  0  0  0  0  0  0  0  0  0
    1.2105   -0.3908    0.0000 C   0  0  0  0  0  0  0  0  0  0  0  0
    2.3919   -1.3151    0.0000 C   0  0  0  0  0  0  0  0  0  0  0  0
    3.6360   -0.4772    0.0000 S   0  0  0  0  0  0  0  0  0  0  0  0
    3.2236    0.9650    0.0000 C   0  0  0  0  0  0  0  0  0  0  0  0
    1.7245    1.0184    0.0000 N   0  0  0  0  0  0  0  0  0  0  0  0
   -2.7522   -0.1729    0.0000 C   0  0  0  0  0  0  0  0  0  0  0  0
   -3.1161   -1.6281    0.0000 O   0  0  0  0  0  0  0  0  0  0  0  0
   -3.8304    0.8698    0.0000 O   0  0  0  0  0  0  0  0  0  0  0  0
  2  1  1  6
  2  3  1  0
  3  4  1  0
  4  5  2  0
  5  6  1  0
  6  7  1  0
  7  8  2  0
  2  9  1  0
  9 10  2  0
  9 11  1  0
  8  4  1  0
M  END
>  <rName>  (566) 
D-Tza

>  <PQ_SYMBOL>  (566) 
D-Tza

>  <FULL_NAME>  (566) 
3-(4-Thiazoyl)-D-Alanine

>  <IUPAC_CONDENSED>  (566) 
D-Tza

>  <IUPAC>  (566) 
(2R)-2-amino-3-(thiazol-4-yl)propanoic acid

>  <TYPE>  (566) 
Backbone

>  <CLASS>  (566) 
alpha

>  <ANALOG>  (566) 
Phe

>  <MOL_WT>  (566) 
172.209

>  <LOGP>  (566) 
0.09749999999999986

>  <TPSA>  (566) 
76.21

>  <POPULARITY>  (566) 
7.7

>  <PROTECTED>  (566) 
TRUE

>  <SMILES>  (566) 
N[C@H](Cc1(cscn1))C(=O)O

>  <INCHIKEY>  (566) 
WBZIGVCQRXJYQD-RXMQYKEDSA-N

$$$$
D-Trp_5OMe
     RDKit          2D

 17 18  0  0  0  0  0  0  0  0999 V2000
   -3.5469   -1.3812    0.0000 N   0  0  0  0  0  0  0  0  0  0  0  0
   -3.1708    0.0709    0.0000 C   0  0  0  0  0  0  0  0  0  0  0  0
   -1.7252    0.4712    0.0000 C   0  0  0  0  0  0  0  0  0  0  0  0
   -0.6557   -0.5805    0.0000 C   0  0  0  0  0  0  0  0  0  0  0  0
   -0.8780   -2.0640    0.0000 C   0  0  0  0  0  0  0  0  0  0  0  0
    0.4642   -2.7337    0.0000 N   0  0  0  0  0  0  0  0  0  0  0  0
    1.5159   -1.6643    0.0000 C   0  0  0  0  0  0  0  0  0  0  0  0
    3.0145   -1.7302    0.0000 C   0  0  0  0  0  0  0  0  0  0  0  0
    3.8209   -0.4654    0.0000 C   0  0  0  0  0  0  0  0  0  0  0  0
    3.1288    0.8653    0.0000 C   0  0  0  0  0  0  0  0  0  0  0  0
    3.9352    2.1301    0.0000 O   0  0  0  0  0  0  0  0  0  0  0  0
    5.4337    2.0641    0.0000 C   0  0  0  0  0  0  0  0  0  0  0  0
    1.6302    0.9313    0.0000 C   0  0  0  0  0  0  0  0  0  0  0  0
    0.8238   -0.3335    0.0000 C   0  0  0  0  0  0  0  0  0  0  0  0
   -4.2403    1.1227    0.0000 C   0  0  0  0  0  0  0  0  0  0  0  0
   -3.8642    2.5748    0.0000 O   0  0  0  0  0  0  0  0  0  0  0  0
   -5.6859    0.7223    0.0000 O   0  0  0  0  0  0  0  0  0  0  0  0
  2  1  1  1
  2  3  1  0
  3  4  1  0
  4  5  2  0
  5  6  1  0
  6  7  1  0
  7  8  1  0
  8  9  2  0
  9 10  1  0
 10 11  1  0
 11 12  1  0
 10 13  2  0
 13 14  1  0
  2 15  1  0
 15 16  2  0
 15 17  1  0
 14  7  2  0
 14  4  1  0
M  END
>  <rName>  (567) 
D-Trp_5OMe

>  <PQ_SYMBOL>  (567) 
D-Trp_5OMe

>  <FULL_NAME>  (567) 
5-Methoxy-D-Tryptophan

>  <IUPAC_CONDENSED>  (567) 
D-Trp(5-OMe)

>  <IUPAC>  (567) 
(2R)-2-amino-3-(5-methoxy-1H-indol-3-yl)propanoic acid

>  <TYPE>  (567) 
Backbone

>  <CLASS>  (567) 
alpha

>  <ANALOG>  (567) 
Trp

>  <MOL_WT>  (567) 
234.25499999999997

>  <LOGP>  (567) 
1.1309

>  <TPSA>  (567) 
88.34000000000002

>  <POPULARITY>  (567) 
5.3

>  <PROTECTED>  (567) 
TRUE

>  <SMILES>  (567) 
N[C@H](Cc2(c[nH]c1(ccc(OC)cc12)))C(=O)O

>  <INCHIKEY>  (567) 
KVNPSKDDJARYKK-SNVBAGLBSA-N

$$$$
D-Abu
     RDKit          2D

  7  6  0  0  0  0  0  0  0  0999 V2000
   -0.5797   -1.7367    0.0000 N   0  0  0  0  0  0  0  0  0  0  0  0
   -0.2514   -0.2730    0.0000 C   0  0  0  0  0  0  0  0  0  0  0  0
   -1.3548    0.7431    0.0000 C   0  0  0  0  0  0  0  0  0  0  0  0
   -2.7865    0.2956    0.0000 C   0  0  0  0  0  0  0  0  0  0  0  0
    1.1803    0.1745    0.0000 C   0  0  0  0  0  0  0  0  0  0  0  0
    1.5086    1.6381    0.0000 O   0  0  0  0  0  0  0  0  0  0  0  0
    2.2837   -0.8417    0.0000 O   0  0  0  0  0  0  0  0  0  0  0  0
  2  1  1  6
  2  3  1  0
  3  4  1  0
  2  5  1  0
  5  6  2  0
  5  7  1  0
M  END
>  <rName>  (568) 
D-Abu

>  <PQ_SYMBOL>  (568) 
D-Abu

>  <FULL_NAME>  (568) 
D-2-Aminobutyric acid

>  <IUPAC_CONDENSED>  (568) 
D-Abu

>  <IUPAC>  (568) 
(2R)-2-aminobutanoic acid

>  <TYPE>  (568) 
Backbone

>  <CLASS>  (568) 
alpha

>  <ANALOG>  (568) 
Ala

>  <MOL_WT>  (568) 
103.12099999999998

>  <LOGP>  (568) 
-0.19170000000000004

>  <TPSA>  (568) 
63.32000000000001

>  <POPULARITY>  (568) 
45.1

>  <PROTECTED>  (568) 
TRUE

>  <SMILES>  (568) 
N[C@H](CC)C(=O)O

>  <INCHIKEY>  (568) 
QWCKQJZIFLGMSD-GSVOUGTGSA-N

$$$$
D-Nle_Me
     RDKit          2D

 10  9  0  0  0  0  0  0  0  0999 V2000
   -1.4166   -1.8843    0.0000 N   0  0  0  0  0  0  0  0  0  0  0  0
   -1.4265   -0.3844    0.0000 C   0  0  0  0  0  0  0  0  0  0  0  0
   -0.1324    0.3741    0.0000 C   0  0  0  0  0  0  0  0  0  0  0  0
    1.1716   -0.3673    0.0000 C   0  0  0  0  0  0  0  0  0  0  0  0
    2.4657    0.3912    0.0000 C   0  0  0  0  0  0  0  0  0  0  0  0
    3.7696   -0.3503    0.0000 C   0  0  0  0  0  0  0  0  0  0  0  0
    5.0637    0.4082    0.0000 C   0  0  0  0  0  0  0  0  0  0  0  0
   -2.7304    0.3571    0.0000 C   0  0  0  0  0  0  0  0  0  0  0  0
   -2.7402    1.8571    0.0000 O   0  0  0  0  0  0  0  0  0  0  0  0
   -4.0245   -0.4014    0.0000 O   0  0  0  0  0  0  0  0  0  0  0  0
  2  1  1  1
  2  3  1  0
  3  4  1  0
  4  5  1  0
  5  6  1  0
  6  7  1  0
  2  8  1  0
  8  9  2  0
  8 10  1  0
M  END
>  <rName>  (569) 
D-Nle_Me

>  <PQ_SYMBOL>  (569) 
D-Nle_Me

>  <FULL_NAME>  (569) 
(R)-2-Aminoheptanoic acid

>  <IUPAC_CONDENSED>  (569) 
D-Nle(Me)

>  <IUPAC>  (569) 
(2R)-2-aminoheptanoic acid

>  <TYPE>  (569) 
Backbone

>  <CLASS>  (569) 
alpha

>  <ANALOG>  (569) 
Leu

>  <MOL_WT>  (569) 
145.202

>  <LOGP>  (569) 
0.9785999999999997

>  <TPSA>  (569) 
63.32000000000001

>  <POPULARITY>  (569) 
14.8

>  <PROTECTED>  (569) 
TRUE

>  <SMILES>  (569) 
N[C@H](CCCCC)C(=O)O

>  <INCHIKEY>  (569) 
RDFMDVXONNIGBC-ZCFIWIBFSA-N

$$$$
D-Cha
     RDKit          2D

 12 12  0  0  0  0  0  0  0  0999 V2000
   -1.2391    1.6805    0.0000 N   0  0  0  0  0  0  0  0  0  0  0  0
   -1.6184    0.2292    0.0000 C   0  0  0  0  0  0  0  0  0  0  0  0
   -0.5513   -0.8249    0.0000 C   0  0  0  0  0  0  0  0  0  0  0  0
    0.8952   -0.4278    0.0000 C   0  0  0  0  0  0  0  0  0  0  0  0
    1.2745    1.0235    0.0000 C   0  0  0  0  0  0  0  0  0  0  0  0
    2.7210    1.4206    0.0000 C   0  0  0  0  0  0  0  0  0  0  0  0
    3.7882    0.3665    0.0000 C   0  0  0  0  0  0  0  0  0  0  0  0
    3.4088   -1.0848    0.0000 C   0  0  0  0  0  0  0  0  0  0  0  0
    1.9624   -1.4819    0.0000 C   0  0  0  0  0  0  0  0  0  0  0  0
   -3.0649   -0.1679    0.0000 C   0  0  0  0  0  0  0  0  0  0  0  0
   -3.4442   -1.6191    0.0000 O   0  0  0  0  0  0  0  0  0  0  0  0
   -4.1321    0.8862    0.0000 O   0  0  0  0  0  0  0  0  0  0  0  0
  2  1  1  6
  2  3  1  0
  3  4  1  0
  4  5  1  0
  5  6  1  0
  6  7  1  0
  7  8  1  0
  8  9  1  0
  2 10  1  0
 10 11  2  0
 10 12  1  0
  9  4  1  0
M  END
>  <rName>  (570) 
D-Cha

>  <PQ_SYMBOL>  (570) 
D-Cha

>  <FULL_NAME>  (570) 
3-Cyclohexyl-D-Alanine, D-Cyclohexanealanine, D-Ace

>  <IUPAC_CONDENSED>  (570) 
D-Cha

>  <IUPAC>  (570) 
(2R)-2-amino-3-cyclohexylpropanoic acid

>  <TYPE>  (570) 
Backbone

>  <CLASS>  (570) 
alpha

>  <ANALOG>  (570) 
Ala

>  <MOL_WT>  (570) 
171.24

>  <LOGP>  (570) 
1.3687

>  <TPSA>  (570) 
63.32000000000001

>  <POPULARITY>  (570) 
35.9

>  <PROTECTED>  (570) 
TRUE

>  <SMILES>  (570) 
N[C@H](CC1(CCCCC1))C(=O)O

>  <INCHIKEY>  (570) 
ORQXBVXKBGUSBA-MRVPVSSYSA-N

$$$$
D-1Nal
     RDKit          2D

 16 17  0  0  0  0  0  0  0  0999 V2000
   -2.7457   -1.6512    0.0000 N   0  0  0  0  0  0  0  0  0  0  0  0
   -2.6203   -0.1565    0.0000 C   0  0  0  0  0  0  0  0  0  0  0  0
   -1.2631    0.4823    0.0000 C   0  0  0  0  0  0  0  0  0  0  0  0
   -0.0314   -0.3737    0.0000 C   0  0  0  0  0  0  0  0  0  0  0  0
   -0.1568   -1.8684    0.0000 C   0  0  0  0  0  0  0  0  0  0  0  0
    1.0750   -2.7244    0.0000 C   0  0  0  0  0  0  0  0  0  0  0  0
    2.4322   -2.0856    0.0000 C   0  0  0  0  0  0  0  0  0  0  0  0
    2.5576   -0.5909    0.0000 C   0  0  0  0  0  0  0  0  0  0  0  0
    3.9148    0.0479    0.0000 C   0  0  0  0  0  0  0  0  0  0  0  0
    4.0402    1.5426    0.0000 C   0  0  0  0  0  0  0  0  0  0  0  0
    2.8084    2.3986    0.0000 C   0  0  0  0  0  0  0  0  0  0  0  0
    1.4512    1.7598    0.0000 C   0  0  0  0  0  0  0  0  0  0  0  0
    1.3258    0.2651    0.0000 C   0  0  0  0  0  0  0  0  0  0  0  0
   -3.8521    0.6995    0.0000 C   0  0  0  0  0  0  0  0  0  0  0  0
   -3.7267    2.1942    0.0000 O   0  0  0  0  0  0  0  0  0  0  0  0
   -5.2093    0.0607    0.0000 O   0  0  0  0  0  0  0  0  0  0  0  0
  2  1  1  1
  2  3  1  0
  3  4  1  0
  4  5  2  0
  5  6  1  0
  6  7  2  0
  7  8  1  0
  8  9  2  0
  9 10  1  0
 10 11  2  0
 11 12  1  0
 12 13  2  0
  2 14  1  0
 14 15  2  0
 14 16  1  0
 13  4  1  0
 13  8  1  0
M  END
>  <rName>  (571) 
D-1Nal

>  <PQ_SYMBOL>  (571) 
D-1Nal

>  <FULL_NAME>  (571) 
3-(1-Naphthyl)-D-Alanine

>  <IUPAC_CONDENSED>  (571) 
D-1Nal

>  <IUPAC>  (571) 
(2R)-2-amino-3-(naphthalen-1-yl)propanoic acid

>  <TYPE>  (571) 
Backbone

>  <CLASS>  (571) 
alpha

>  <ANALOG>  (571) 
Phe

>  <MOL_WT>  (571) 
215.25199999999998

>  <LOGP>  (571) 
1.7942

>  <TPSA>  (571) 
63.32000000000001

>  <POPULARITY>  (571) 
17.8

>  <PROTECTED>  (571) 
TRUE

>  <SMILES>  (571) 
N[C@H](Cc1(cccc2(ccccc12)))C(=O)O

>  <INCHIKEY>  (571) 
OFYAYGJCPXRNBL-GFCCVEGCSA-N

$$$$
D-aThr
     RDKit          2D

  8  7  0  0  0  0  0  0  0  0999 V2000
    0.0000   -2.0625    0.0000 N   0  0  0  0  0  0  0  0  0  0  0  0
    0.0000   -0.5625    0.0000 C   0  0  0  0  0  0  0  0  0  0  0  0
   -1.2990    0.1875    0.0000 C   0  0  0  0  0  0  0  0  0  0  0  0
   -1.2990    1.6875    0.0000 O   0  0  0  0  0  0  0  0  0  0  0  0
   -2.5981   -0.5625    0.0000 C   0  0  0  0  0  0  0  0  0  0  0  0
    1.2990    0.1875    0.0000 C   0  0  0  0  0  0  0  0  0  0  0  0
    1.2990    1.6875    0.0000 O   0  0  0  0  0  0  0  0  0  0  0  0
    2.5981   -0.5625    0.0000 O   0  0  0  0  0  0  0  0  0  0  0  0
  2  1  1  6
  2  3  1  0
  3  4  1  0
  3  5  1  1
  2  6  1  0
  6  7  2  0
  6  8  1  0
M  END
>  <rName>  (572) 
D-aThr

>  <PQ_SYMBOL>  (572) 
D-aThr

>  <FULL_NAME>  (572) 
D-Allothreonine, (2R,3R)-Allothreonine

>  <IUPAC_CONDENSED>  (572) 
D-aThr

>  <IUPAC>  (572) 
(2R,3R)-2-amino-3-hydroxybutanoic acid

>  <TYPE>  (572) 
Backbone

>  <CLASS>  (572) 
alpha

>  <ANALOG>  (572) 
Thr

>  <MOL_WT>  (572) 
119.11999999999999

>  <LOGP>  (572) 
-1.2209

>  <TPSA>  (572) 
83.55

>  <POPULARITY>  (572) 
41.9

>  <PROTECTED>  (572) 
TRUE

>  <SMILES>  (572) 
N[C@H]([C@H](O)C)C(=O)O

>  <INCHIKEY>  (572) 
AYFVYJQAPQTCCC-PWNYCUMCSA-N

$$$$
D-Phe_3Me
     RDKit          2D

 13 13  0  0  0  0  0  0  0  0999 V2000
   -1.7680    1.6690    0.0000 N   0  0  0  0  0  0  0  0  0  0  0  0
   -1.9932    0.1860    0.0000 C   0  0  0  0  0  0  0  0  0  0  0  0
   -0.8215   -0.7506    0.0000 C   0  0  0  0  0  0  0  0  0  0  0  0
    0.5754   -0.2041    0.0000 C   0  0  0  0  0  0  0  0  0  0  0  0
    0.8006    1.2789    0.0000 C   0  0  0  0  0  0  0  0  0  0  0  0
    2.1976    1.8254    0.0000 C   0  0  0  0  0  0  0  0  0  0  0  0
    3.3693    0.8888    0.0000 C   0  0  0  0  0  0  0  0  0  0  0  0
    3.1441   -0.5942    0.0000 C   0  0  0  0  0  0  0  0  0  0  0  0
    4.3158   -1.5307    0.0000 C   0  0  0  0  0  0  0  0  0  0  0  0
    1.7472   -1.1406    0.0000 C   0  0  0  0  0  0  0  0  0  0  0  0
   -3.3901   -0.3605    0.0000 C   0  0  0  0  0  0  0  0  0  0  0  0
   -3.6153   -1.8435    0.0000 O   0  0  0  0  0  0  0  0  0  0  0  0
   -4.5618    0.5760    0.0000 O   0  0  0  0  0  0  0  0  0  0  0  0
  2  1  1  6
  2  3  1  0
  3  4  1  0
  4  5  2  0
  5  6  1  0
  6  7  2  0
  7  8  1  0
  8  9  1  0
  8 10  2  0
  2 11  1  0
 11 12  2  0
 11 13  1  0
 10  4  1  0
M  END
>  <rName>  (573) 
D-Phe_3Me

>  <PQ_SYMBOL>  (573) 
D-Phe_3Me

>  <FULL_NAME>  (573) 
3-Methyl-D-Phenylalanine

>  <IUPAC_CONDENSED>  (573) 
D-Phe(3-Me)

>  <IUPAC>  (573) 
(2R)-2-amino-3-(3-methylphenyl)propanoic acid

>  <TYPE>  (573) 
Backbone

>  <CLASS>  (573) 
alpha

>  <ANALOG>  (573) 
Phe

>  <MOL_WT>  (573) 
179.21899999999997

>  <LOGP>  (573) 
0.9494199999999999

>  <TPSA>  (573) 
63.32000000000001

>  <POPULARITY>  (573) 
11.3

>  <PROTECTED>  (573) 
TRUE

>  <SMILES>  (573) 
N[C@H](Cc1(cccc(C)c1))C(=O)O

>  <INCHIKEY>  (573) 
JZRBSTONIYRNRI-SECBINFHSA-N

$$$$
D-Phe_bSOH
     RDKit          2D

 13 13  0  0  0  0  0  0  0  0999 V2000
   -1.1110    1.8899    0.0000 N   0  0  0  0  0  0  0  0  0  0  0  0
   -1.5339    0.4508    0.0000 C   0  0  0  0  0  0  0  0  0  0  0  0
   -0.4991   -0.6350    0.0000 C   0  0  0  0  0  0  0  0  0  0  0  0
   -0.9220   -2.0742    0.0000 O   0  0  0  0  0  0  0  0  0  0  0  0
    0.9587   -0.2818    0.0000 C   0  0  0  0  0  0  0  0  0  0  0  0
    1.3817    1.1574    0.0000 C   0  0  0  0  0  0  0  0  0  0  0  0
    2.8395    1.5107    0.0000 C   0  0  0  0  0  0  0  0  0  0  0  0
    3.8743    0.4248    0.0000 C   0  0  0  0  0  0  0  0  0  0  0  0
    3.4514   -1.0143    0.0000 C   0  0  0  0  0  0  0  0  0  0  0  0
    1.9936   -1.3676    0.0000 C   0  0  0  0  0  0  0  0  0  0  0  0
   -2.9917    0.0975    0.0000 C   0  0  0  0  0  0  0  0  0  0  0  0
   -3.4147   -1.3416    0.0000 O   0  0  0  0  0  0  0  0  0  0  0  0
   -4.0266    1.1834    0.0000 O   0  0  0  0  0  0  0  0  0  0  0  0
  2  1  1  6
  2  3  1  0
  3  4  1  6
  3  5  1  0
  5  6  2  0
  6  7  1  0
  7  8  2  0
  8  9  1  0
  9 10  2  0
  2 11  1  0
 11 12  2  0
 11 13  1  0
 10  5  1  0
M  END
>  <rName>  (574) 
D-Phe_bSOH

>  <PQ_SYMBOL>  (574) 
D-Phe_bSOH

>  <FULL_NAME>  (574) 
D-Threo-3-Phenylserine

>  <IUPAC_CONDENSED>  (574) 
D-Phe(bS-OH)

>  <IUPAC>  (574) 
(2R,3S)-2-amino-3-hydroxy-3-phenylpropanoic acid

>  <TYPE>  (574) 
Backbone

>  <CLASS>  (574) 
alpha

>  <ANALOG>  (574) 
Phe

>  <MOL_WT>  (574) 
181.19099999999997

>  <LOGP>  (574) 
0.13190000000000007

>  <TPSA>  (574) 
83.55

>  <POPULARITY>  (574) 
13.9

>  <PROTECTED>  (574) 
TRUE

>  <SMILES>  (574) 
N[C@H]([C@@H](O)c1(ccccc1))C(=O)O

>  <INCHIKEY>  (574) 
VHVGNTVUSQUXPS-SFYZADRCSA-N

$$$$
D-Cys_Bn
     RDKit          2D

 14 14  0  0  0  0  0  0  0  0999 V2000
   -2.7125    1.8435    0.0000 N   0  0  0  0  0  0  0  0  0  0  0  0
   -2.9490    0.3623    0.0000 C   0  0  0  0  0  0  0  0  0  0  0  0
   -1.7844   -0.5831    0.0000 C   0  0  0  0  0  0  0  0  0  0  0  0
   -0.3834   -0.0473    0.0000 S   0  0  0  0  0  0  0  0  0  0  0  0
    0.7812   -0.9927    0.0000 C   0  0  0  0  0  0  0  0  0  0  0  0
    2.1822   -0.4569    0.0000 C   0  0  0  0  0  0  0  0  0  0  0  0
    2.4187    1.0244    0.0000 C   0  0  0  0  0  0  0  0  0  0  0  0
    3.8197    1.5602    0.0000 C   0  0  0  0  0  0  0  0  0  0  0  0
    4.9842    0.6148    0.0000 C   0  0  0  0  0  0  0  0  0  0  0  0
    4.7478   -0.8664    0.0000 C   0  0  0  0  0  0  0  0  0  0  0  0
    3.3467   -1.4023    0.0000 C   0  0  0  0  0  0  0  0  0  0  0  0
   -4.3500   -0.1735    0.0000 C   0  0  0  0  0  0  0  0  0  0  0  0
   -4.5865   -1.6548    0.0000 O   0  0  0  0  0  0  0  0  0  0  0  0
   -5.5146    0.7719    0.0000 O   0  0  0  0  0  0  0  0  0  0  0  0
  2  1  1  6
  2  3  1  0
  3  4  1  0
  4  5  1  0
  5  6  1  0
  6  7  2  0
  7  8  1  0
  8  9  2  0
  9 10  1  0
 10 11  2  0
  2 12  1  0
 12 13  2  0
 12 14  1  0
 11  6  1  0
M  END
>  <rName>  (575) 
D-Cys_Bn

>  <PQ_SYMBOL>  (575) 
D-Cys_Bn

>  <FULL_NAME>  (575) 
S-Benzyl-D-Cysteine

>  <IUPAC_CONDENSED>  (575) 
D-Cys(Bn)

>  <IUPAC>  (575) 
(2S)-2-amino-3-(benzylsulfanyl)propanoic acid

>  <TYPE>  (575) 
Backbone

>  <CLASS>  (575) 
alpha

>  <ANALOG>  (575) 
Cys

>  <MOL_WT>  (575) 
211.286

>  <LOGP>  (575) 
1.3317

>  <TPSA>  (575) 
63.32000000000001

>  <POPULARITY>  (575) 
12.1

>  <PROTECTED>  (575) 
TRUE

>  <SMILES>  (575) 
N[C@H](CSCc1(ccccc1))C(=O)O

>  <INCHIKEY>  (575) 
GHBAYRBVXCRIHT-SECBINFHSA-N

$$$$
D-Bip
     RDKit          2D

 18 19  0  0  0  0  0  0  0  0999 V2000
   -3.2769    1.7174    0.0000 N   0  0  0  0  0  0  0  0  0  0  0  0
   -3.8349    0.3251    0.0000 C   0  0  0  0  0  0  0  0  0  0  0  0
   -2.9082   -0.8544    0.0000 C   0  0  0  0  0  0  0  0  0  0  0  0
   -1.4234   -0.6415    0.0000 C   0  0  0  0  0  0  0  0  0  0  0  0
   -0.8653    0.7508    0.0000 C   0  0  0  0  0  0  0  0  0  0  0  0
    0.6195    0.9637    0.0000 C   0  0  0  0  0  0  0  0  0  0  0  0
    1.5463   -0.2158    0.0000 C   0  0  0  0  0  0  0  0  0  0  0  0
    0.9882   -1.6081    0.0000 C   0  0  0  0  0  0  0  0  0  0  0  0
   -0.4966   -1.8210    0.0000 C   0  0  0  0  0  0  0  0  0  0  0  0
    3.0311   -0.0029    0.0000 C   0  0  0  0  0  0  0  0  0  0  0  0
    3.9578   -1.1824    0.0000 C   0  0  0  0  0  0  0  0  0  0  0  0
    5.4427   -0.9695    0.0000 C   0  0  0  0  0  0  0  0  0  0  0  0
    6.0007    0.4228    0.0000 C   0  0  0  0  0  0  0  0  0  0  0  0
    5.0740    1.6023    0.0000 C   0  0  0  0  0  0  0  0  0  0  0  0
    3.5891    1.3894    0.0000 C   0  0  0  0  0  0  0  0  0  0  0  0
   -5.3198    0.1122    0.0000 C   0  0  0  0  0  0  0  0  0  0  0  0
   -5.8778   -1.2801    0.0000 O   0  0  0  0  0  0  0  0  0  0  0  0
   -6.2465    1.2917    0.0000 O   0  0  0  0  0  0  0  0  0  0  0  0
  2  1  1  6
  2  3  1  0
  3  4  1  0
  4  5  1  0
  5  6  2  0
  6  7  1  0
  7  8  2  0
  8  9  1  0
  7 10  1  0
 10 11  2  0
 11 12  1  0
 12 13  2  0
 13 14  1  0
 14 15  2  0
  2 16  1  0
 16 17  2  0
 16 18  1  0
  9  4  2  0
 15 10  1  0
M  END
>  <rName>  (576) 
D-Bip

>  <PQ_SYMBOL>  (576) 
D-Bip

>  <FULL_NAME>  (576) 
4-Phenyl-D-Phenylalanine

>  <IUPAC_CONDENSED>  (576) 
D-Bip

>  <IUPAC>  (576) 
(2R)-2-amino-3-(4-phenylphenyl)propanoic acid

>  <TYPE>  (576) 
Backbone

>  <CLASS>  (576) 
alpha

>  <ANALOG>  (576) 
Phe

>  <MOL_WT>  (576) 
241.29

>  <LOGP>  (576) 
2.308

>  <TPSA>  (576) 
63.32000000000001

>  <POPULARITY>  (576) 
17.3

>  <PROTECTED>  (576) 
TRUE

>  <SMILES>  (576) 
N[C@H](Cc1(ccc(cc1)c2(ccccc2)))C(=O)O

>  <INCHIKEY>  (576) 
JCZLABDVDPYLRZ-CQSZACIVSA-N

$$$$
D-Val_3Me
     RDKit          2D

  9  8  0  0  0  0  0  0  0  0999 V2000
    0.1862    2.0800    0.0000 N   0  0  0  0  0  0  0  0  0  0  0  0
    0.1560    0.5803    0.0000 C   0  0  0  0  0  0  0  0  0  0  0  0
   -1.1578   -0.1434    0.0000 C   0  0  0  0  0  0  0  0  0  0  0  0
   -1.8815    1.1705    0.0000 C   0  0  0  0  0  0  0  0  0  0  0  0
   -0.4341   -1.4573    0.0000 C   0  0  0  0  0  0  0  0  0  0  0  0
   -2.4717   -0.8671    0.0000 C   0  0  0  0  0  0  0  0  0  0  0  0
    1.4397   -0.1957    0.0000 C   0  0  0  0  0  0  0  0  0  0  0  0
    1.4095   -1.6954    0.0000 O   0  0  0  0  0  0  0  0  0  0  0  0
    2.7536    0.5280    0.0000 O   0  0  0  0  0  0  0  0  0  0  0  0
  2  1  1  1
  2  3  1  0
  3  4  1  0
  3  5  1  0
  3  6  1  0
  2  7  1  0
  7  8  2  0
  7  9  1  0
M  END
>  <rName>  (577) 
D-Val_3Me

>  <PQ_SYMBOL>  (577) 
D-Val_3Me

>  <FULL_NAME>  (577) 
3-Methyl-D-Valine

>  <IUPAC_CONDENSED>  (577) 
D-Val(3-Me)

>  <IUPAC>  (577) 
(2R)-2-amino-3,3-dimethylbutanoic acid

>  <TYPE>  (577) 
Backbone

>  <CLASS>  (577) 
alpha

>  <ANALOG>  (577) 
Val

>  <MOL_WT>  (577) 
131.17499999999998

>  <LOGP>  (577) 
0.44439999999999985

>  <TPSA>  (577) 
63.32000000000001

>  <POPULARITY>  (577) 
19.4

>  <PROTECTED>  (577) 
TRUE

>  <SMILES>  (577) 
N[C@H](C(C)(C)C)C(=O)O

>  <INCHIKEY>  (577) 
NPDBDJFLKKQMCM-BYPYZUCNSA-N

$$$$
D-Chg
     RDKit          2D

 11 11  0  0  0  0  0  0  0  0999 V2000
   -1.6031   -2.0851    0.0000 N   0  0  0  0  0  0  0  0  0  0  0  0
   -1.1770   -0.6469    0.0000 C   0  0  0  0  0  0  0  0  0  0  0  0
    0.2816   -0.2968    0.0000 C   0  0  0  0  0  0  0  0  0  0  0  0
    0.7077    1.1415    0.0000 C   0  0  0  0  0  0  0  0  0  0  0  0
    2.1662    1.4916    0.0000 C   0  0  0  0  0  0  0  0  0  0  0  0
    3.1987    0.4035    0.0000 C   0  0  0  0  0  0  0  0  0  0  0  0
    2.7726   -1.0347    0.0000 C   0  0  0  0  0  0  0  0  0  0  0  0
    1.3141   -1.3849    0.0000 C   0  0  0  0  0  0  0  0  0  0  0  0
   -2.2095    0.4412    0.0000 C   0  0  0  0  0  0  0  0  0  0  0  0
   -1.7834    1.8794    0.0000 O   0  0  0  0  0  0  0  0  0  0  0  0
   -3.6680    0.0911    0.0000 O   0  0  0  0  0  0  0  0  0  0  0  0
  2  1  1  1
  2  3  1  0
  3  4  1  0
  4  5  1  0
  5  6  1  0
  6  7  1  0
  7  8  1  0
  2  9  1  0
  9 10  2  0
  9 11  1  0
  8  3  1  0
M  END
>  <rName>  (578) 
D-Chg

>  <PQ_SYMBOL>  (578) 
D-Chg

>  <FULL_NAME>  (578) 
D-Cyclohexylglycine

>  <IUPAC_CONDENSED>  (578) 
D-Chg

>  <IUPAC>  (578) 
(2R)-2-amino-2-cyclohexylacetic acid

>  <TYPE>  (578) 
Backbone

>  <CLASS>  (578) 
alpha

>  <ANALOG>  (578) 
X

>  <MOL_WT>  (578) 
157.21300000000002

>  <LOGP>  (578) 
0.9785999999999997

>  <TPSA>  (578) 
63.32000000000001

>  <POPULARITY>  (578) 
20.1

>  <PROTECTED>  (578) 
TRUE

>  <SMILES>  (578) 
N[C@H](C1(CCCCC1))C(=O)O

>  <INCHIKEY>  (578) 
WAMWSIDTKSNDCU-SSDOTTSWSA-N

$$$$
D-Cit
     RDKit          2D

 12 11  0  0  0  0  0  0  0  0999 V2000
    2.4617   -1.9005    0.0000 N   0  0  0  0  0  0  0  0  0  0  0  0
    2.4001   -0.4018    0.0000 C   0  0  0  0  0  0  0  0  0  0  0  0
    1.0713    0.2943    0.0000 C   0  0  0  0  0  0  0  0  0  0  0  0
   -0.1958   -0.5085    0.0000 C   0  0  0  0  0  0  0  0  0  0  0  0
   -1.5245    0.1875    0.0000 C   0  0  0  0  0  0  0  0  0  0  0  0
   -2.7917   -0.6152    0.0000 N   0  0  0  0  0  0  0  0  0  0  0  0
   -4.1204    0.0808    0.0000 C   0  0  0  0  0  0  0  0  0  0  0  0
   -4.1820    1.5796    0.0000 O   0  0  0  0  0  0  0  0  0  0  0  0
   -5.3876   -0.7219    0.0000 N   0  0  0  0  0  0  0  0  0  0  0  0
    3.6672    0.4010    0.0000 C   0  0  0  0  0  0  0  0  0  0  0  0
    3.6056    1.8997    0.0000 O   0  0  0  0  0  0  0  0  0  0  0  0
    4.9960   -0.2950    0.0000 O   0  0  0  0  0  0  0  0  0  0  0  0
  2  1  1  6
  2  3  1  0
  3  4  1  0
  4  5  1  0
  5  6  1  0
  6  7  1  0
  7  8  2  0
  7  9  1  0
  2 10  1  0
 10 11  2  0
 10 12  1  0
M  END
>  <rName>  (579) 
D-Cit

>  <PQ_SYMBOL>  (579) 
D-Cit

>  <FULL_NAME>  (579) 
D-Citrulline

>  <IUPAC_CONDENSED>  (579) 
D-Cit

>  <IUPAC>  (579) 
(2R)-2-amino-5-(carbamoylamino)pentanoic acid

>  <TYPE>  (579) 
Backbone

>  <CLASS>  (579) 
alpha

>  <ANALOG>  (579) 
Arg

>  <MOL_WT>  (579) 
175.188

>  <LOGP>  (579) 
-1.1531999999999991

>  <TPSA>  (579) 
118.44000000000001

>  <POPULARITY>  (579) 
16.2

>  <PROTECTED>  (579) 
TRUE

>  <SMILES>  (579) 
N[C@H](CCCNC(=O)N)C(=O)O

>  <INCHIKEY>  (579) 
RHGKLRLOHDJJDR-SCSAIBSYSA-N

$$$$
D-Ala_cPent
     RDKit          2D

 11 11  0  0  0  0  0  0  0  0999 V2000
   -0.9461    1.6947    0.0000 N   0  0  0  0  0  0  0  0  0  0  0  0
   -1.3100    0.2395    0.0000 C   0  0  0  0  0  0  0  0  0  0  0  0
   -0.2317   -0.8032    0.0000 C   0  0  0  0  0  0  0  0  0  0  0  0
    1.2105   -0.3908    0.0000 C   0  0  0  0  0  0  0  0  0  0  0  0
    2.3919   -1.3151    0.0000 C   0  0  0  0  0  0  0  0  0  0  0  0
    3.6360   -0.4772    0.0000 C   0  0  0  0  0  0  0  0  0  0  0  0
    3.2236    0.9650    0.0000 C   0  0  0  0  0  0  0  0  0  0  0  0
    1.7245    1.0184    0.0000 C   0  0  0  0  0  0  0  0  0  0  0  0
   -2.7522   -0.1729    0.0000 C   0  0  0  0  0  0  0  0  0  0  0  0
   -3.1161   -1.6281    0.0000 O   0  0  0  0  0  0  0  0  0  0  0  0
   -3.8304    0.8698    0.0000 O   0  0  0  0  0  0  0  0  0  0  0  0
  2  1  1  6
  2  3  1  0
  3  4  1  0
  4  5  1  0
  5  6  1  0
  6  7  1  0
  7  8  1  0
  2  9  1  0
  9 10  2  0
  9 11  1  0
  8  4  1  0
M  END
>  <rName>  (580) 
D-Ala_cPent

>  <PQ_SYMBOL>  (580) 
D-Ala_cPent

>  <FULL_NAME>  (580) 
3-Cyclopentane-D-Alanine

>  <IUPAC_CONDENSED>  (580) 
D-Ala(cPent)

>  <IUPAC>  (580) 
(2R)-2-amino-3-cyclopentylpropanoic acid

>  <TYPE>  (580) 
Backbone

>  <CLASS>  (580) 
alpha

>  <ANALOG>  (580) 
Ala

>  <MOL_WT>  (580) 
157.21300000000002

>  <LOGP>  (580) 
0.9785999999999997

>  <TPSA>  (580) 
63.32000000000001

>  <POPULARITY>  (580) 
8.2

>  <PROTECTED>  (580) 
TRUE

>  <SMILES>  (580) 
N[C@H](CC1(CCCC1))C(=O)O

>  <INCHIKEY>  (580) 
KDYAKYRBGLKMAK-SSDOTTSWSA-N

$$$$
D-Sec
     RDKit          2D

  7  6  0  0  0  0  0  0  0  0999 V2000
    0.5797   -1.7367    0.0000 N   0  0  0  0  0  0  0  0  0  0  0  0
    0.2514   -0.2730    0.0000 C   0  0  0  0  0  0  0  0  0  0  0  0
    1.3548    0.7431    0.0000 C   0  0  0  0  0  0  0  0  0  0  0  0
    2.7865    0.2956    0.0000 Se  0  0  0  0  0  2  0  0  0  0  0  0
   -1.1803    0.1745    0.0000 C   0  0  0  0  0  0  0  0  0  0  0  0
   -1.5086    1.6381    0.0000 O   0  0  0  0  0  0  0  0  0  0  0  0
   -2.2837   -0.8417    0.0000 O   0  0  0  0  0  0  0  0  0  0  0  0
  2  1  1  1
  2  3  1  0
  3  4  1  0
  2  5  1  0
  5  6  2  0
  5  7  1  0
M  END
>  <rName>  (581) 
D-Sec

>  <PQ_SYMBOL>  (581) 
D-Sec

>  <FULL_NAME>  (581) 
3-Selenyl-D-Alanine

>  <IUPAC_CONDENSED>  (581) 
D-Sec

>  <IUPAC>  (581) 
(2S)-2-amino-3-selanylpropanoic acid

>  <TYPE>  (581) 
Backbone

>  <CLASS>  (581) 
alpha

>  <ANALOG>  (581) 
Cys

>  <MOL_WT>  (581) 
168.054

>  <LOGP>  (581) 
-1.2826000000000002

>  <TPSA>  (581) 
63.32000000000001

>  <POPULARITY>  (581) 
2.1

>  <PROTECTED>  (581) 
FALSE

>  <SMILES>  (581) 
N[C@H](C[SeH])C(=O)O

>  <INCHIKEY>  (581) 
ZKZBPNGNEQAJSX-UWTATZPHSA-N

$$$$
D-nTyr
     RDKit          2D

 12 12  0  0  0  0  0  0  0  0999 V2000
   -2.1139   -2.0272    0.0000 N   0  0  0  0  0  0  0  0  0  0  0  0
   -1.6041   -0.6165    0.0000 C   0  0  0  0  0  0  0  0  0  0  0  0
   -0.1275   -0.3527    0.0000 C   0  0  0  0  0  0  0  0  0  0  0  0
    0.3824    1.0580    0.0000 C   0  0  0  0  0  0  0  0  0  0  0  0
    1.8590    1.3219    0.0000 C   0  0  0  0  0  0  0  0  0  0  0  0
    2.8258    0.1750    0.0000 C   0  0  0  0  0  0  0  0  0  0  0  0
    4.3024    0.4388    0.0000 O   0  0  0  0  0  0  0  0  0  0  0  0
    2.3159   -1.2357    0.0000 C   0  0  0  0  0  0  0  0  0  0  0  0
    0.8393   -1.4995    0.0000 C   0  0  0  0  0  0  0  0  0  0  0  0
   -2.5709    0.5304    0.0000 C   0  0  0  0  0  0  0  0  0  0  0  0
   -2.0610    1.9411    0.0000 O   0  0  0  0  0  0  0  0  0  0  0  0
   -4.0475    0.2665    0.0000 O   0  0  0  0  0  0  0  0  0  0  0  0
  2  1  1  1
  2  3  1  0
  3  4  1  0
  4  5  2  0
  5  6  1  0
  6  7  1  0
  6  8  2  0
  8  9  1  0
  2 10  1  0
 10 11  2  0
 10 12  1  0
  9  3  2  0
M  END
>  <rName>  (582) 
D-nTyr

>  <PQ_SYMBOL>  (582) 
D-nTyr

>  <FULL_NAME>  (582) 
4-Hydroxy-D-Phenylglycine

>  <IUPAC_CONDENSED>  (582) 
D-nTyr

>  <IUPAC>  (582) 
(2R)-2-amino-2-(4-hydroxyphenyl)acetic acid

>  <TYPE>  (582) 
Backbone

>  <CLASS>  (582) 
alpha

>  <ANALOG>  (582) 
X

>  <MOL_WT>  (582) 
167.16399999999996

>  <LOGP>  (582) 
0.4766

>  <TPSA>  (582) 
83.55

>  <POPULARITY>  (582) 
34.5

>  <PROTECTED>  (582) 
TRUE

>  <SMILES>  (582) 
N[C@H](c1(ccc(O)cc1))C(=O)O

>  <INCHIKEY>  (582) 
LJCWONGJFPCTTL-SSDOTTSWSA-N

$$$$
D-Dab
     RDKit          2D

  8  7  0  0  0  0  0  0  0  0999 V2000
   -0.2517    1.8862    0.0000 N   0  0  0  0  0  0  0  0  0  0  0  0
   -0.3100    0.3873    0.0000 C   0  0  0  0  0  0  0  0  0  0  0  0
    0.9590   -0.4126    0.0000 C   0  0  0  0  0  0  0  0  0  0  0  0
    2.2862    0.2864    0.0000 C   0  0  0  0  0  0  0  0  0  0  0  0
    3.5551   -0.5134    0.0000 N   0  0  0  0  0  0  0  0  0  0  0  0
   -1.6371   -0.3117    0.0000 C   0  0  0  0  0  0  0  0  0  0  0  0
   -1.6954   -1.8105    0.0000 O   0  0  0  0  0  0  0  0  0  0  0  0
   -2.9061    0.4882    0.0000 O   0  0  0  0  0  0  0  0  0  0  0  0
  2  1  1  6
  2  3  1  0
  3  4  1  0
  4  5  1  0
  2  6  1  0
  6  7  2  0
  6  8  1  0
M  END
>  <rName>  (583) 
D-Dab

>  <PQ_SYMBOL>  (583) 
D-Dab

>  <FULL_NAME>  (583) 
(R)-2,4-Diaminobutanoic acid

>  <IUPAC_CONDENSED>  (583) 
D-Dab

>  <IUPAC>  (583) 
(2R)-2,4-diaminobutanoic acid

>  <TYPE>  (583) 
Backbone

>  <CLASS>  (583) 
alpha

>  <ANALOG>  (583) 
X

>  <MOL_WT>  (583) 
118.13599999999998

>  <LOGP>  (583) 
-1.2528999999999997

>  <TPSA>  (583) 
89.34

>  <POPULARITY>  (583) 
36.8

>  <PROTECTED>  (583) 
TRUE

>  <SMILES>  (583) 
N[C@H](CCN)C(=O)O

>  <INCHIKEY>  (583) 
OGNSCSPNOLGXSM-GSVOUGTGSA-N

$$$$
D-Dap
     RDKit          2D

  7  6  0  0  0  0  0  0  0  0999 V2000
    0.5797   -1.7367    0.0000 N   0  0  0  0  0  0  0  0  0  0  0  0
    0.2514   -0.2730    0.0000 C   0  0  0  0  0  0  0  0  0  0  0  0
    1.3548    0.7431    0.0000 C   0  0  0  0  0  0  0  0  0  0  0  0
    2.7865    0.2956    0.0000 N   0  0  0  0  0  0  0  0  0  0  0  0
   -1.1803    0.1745    0.0000 C   0  0  0  0  0  0  0  0  0  0  0  0
   -1.5086    1.6381    0.0000 O   0  0  0  0  0  0  0  0  0  0  0  0
   -2.2837   -0.8417    0.0000 O   0  0  0  0  0  0  0  0  0  0  0  0
  2  1  1  1
  2  3  1  0
  3  4  1  0
  2  5  1  0
  5  6  2  0
  5  7  1  0
M  END
>  <rName>  (584) 
D-Dap

>  <PQ_SYMBOL>  (584) 
D-Dap

>  <FULL_NAME>  (584) 
3-Amino-D-Alanine, (R)-2,3-Diaminopropionic acid

>  <IUPAC_CONDENSED>  (584) 
D-Dap

>  <IUPAC>  (584) 
(2R)-2,3-diaminopropanoic acid

>  <TYPE>  (584) 
Backbone

>  <CLASS>  (584) 
alpha

>  <ANALOG>  (584) 
X

>  <MOL_WT>  (584) 
104.10899999999998

>  <LOGP>  (584) 
-1.6429999999999998

>  <TPSA>  (584) 
89.34

>  <POPULARITY>  (584) 
35.6

>  <PROTECTED>  (584) 
TRUE

>  <SMILES>  (584) 
N[C@H](CN)C(=O)O

>  <INCHIKEY>  (584) 
PECYZEOJVXMISF-UWTATZPHSA-N

$$$$
D-Ala_2furyl
     RDKit          2D

 11 11  0  0  0  0  0  0  0  0999 V2000
   -0.9461    1.6947    0.0000 N   0  0  0  0  0  0  0  0  0  0  0  0
   -1.3100    0.2395    0.0000 C   0  0  0  0  0  0  0  0  0  0  0  0
   -0.2317   -0.8032    0.0000 C   0  0  0  0  0  0  0  0  0  0  0  0
    1.2105   -0.3908    0.0000 C   0  0  0  0  0  0  0  0  0  0  0  0
    2.3919   -1.3151    0.0000 C   0  0  0  0  0  0  0  0  0  0  0  0
    3.6360   -0.4772    0.0000 C   0  0  0  0  0  0  0  0  0  0  0  0
    3.2236    0.9650    0.0000 C   0  0  0  0  0  0  0  0  0  0  0  0
    1.7245    1.0184    0.0000 O   0  0  0  0  0  0  0  0  0  0  0  0
   -2.7522   -0.1729    0.0000 C   0  0  0  0  0  0  0  0  0  0  0  0
   -3.1161   -1.6281    0.0000 O   0  0  0  0  0  0  0  0  0  0  0  0
   -3.8304    0.8698    0.0000 O   0  0  0  0  0  0  0  0  0  0  0  0
  2  1  1  6
  2  3  1  0
  3  4  1  0
  4  5  2  0
  5  6  1  0
  6  7  2  0
  7  8  1  0
  2  9  1  0
  9 10  2  0
  9 11  1  0
  8  4  1  0
M  END
>  <rName>  (585) 
D-Ala_2furyl

>  <PQ_SYMBOL>  (585) 
D-Ala_2furyl

>  <FULL_NAME>  (585) 
3-(2-Furyl)-D-Alanine

>  <IUPAC_CONDENSED>  (585) 
D-Ala(2-furyl)

>  <IUPAC>  (585) 
(2R)-2-amino-3-(furan-2-yl)propanoic acid

>  <TYPE>  (585) 
Backbone

>  <CLASS>  (585) 
alpha

>  <ANALOG>  (585) 
Phe

>  <MOL_WT>  (585) 
155.15299999999996

>  <LOGP>  (585) 
0.23399999999999993

>  <TPSA>  (585) 
76.46

>  <POPULARITY>  (585) 
6.9

>  <PROTECTED>  (585) 
TRUE

>  <SMILES>  (585) 
N[C@H](Cc1(ccco1))C(=O)O

>  <INCHIKEY>  (585) 
RXZQHZDTHUUJQJ-ZCFIWIBFSA-N

$$$$
D-Nar
     RDKit          2D

 11 10  0  0  0  0  0  0  0  0999 V2000
   -1.6269    1.8430    0.0000 N   0  0  0  0  0  0  0  0  0  0  0  0
   -1.7489    0.3480    0.0000 C   0  0  0  0  0  0  0  0  0  0  0  0
   -0.5152   -0.5052    0.0000 C   0  0  0  0  0  0  0  0  0  0  0  0
    0.8406    0.1366    0.0000 C   0  0  0  0  0  0  0  0  0  0  0  0
    2.0743   -0.7166    0.0000 N   0  0  0  0  0  0  0  0  0  0  0  0
    3.4300   -0.0748    0.0000 C   0  0  0  0  0  0  0  0  0  0  0  0
    3.5521    1.4203    0.0000 N   0  0  0  0  0  0  0  0  0  0  0  0
    4.6637   -0.9280    0.0000 N   0  0  0  0  0  0  0  0  0  0  0  0
   -3.1047   -0.2938    0.0000 C   0  0  0  0  0  0  0  0  0  0  0  0
   -3.2267   -1.7889    0.0000 O   0  0  0  0  0  0  0  0  0  0  0  0
   -4.3384    0.5594    0.0000 O   0  0  0  0  0  0  0  0  0  0  0  0
  2  1  1  6
  2  3  1  0
  3  4  1  0
  4  5  1  0
  5  6  1  0
  6  7  2  0
  6  8  1  0
  2  9  1  0
  9 10  2  0
  9 11  1  0
M  END
>  <rName>  (586) 
D-Nar

>  <PQ_SYMBOL>  (586) 
D-Nar

>  <FULL_NAME>  (586) 
D-Norarginine

>  <IUPAC_CONDENSED>  (586) 
D-Nar

>  <IUPAC>  (586) 
(2R)-2-amino-4-(((amino)(imino)methyl)amino)butanoic acid

>  <TYPE>  (586) 
Backbone

>  <CLASS>  (586) 
alpha

>  <ANALOG>  (586) 
Arg

>  <MOL_WT>  (586) 
160.177

>  <LOGP>  (586) 
-1.7285299999999992

>  <TPSA>  (586) 
125.22000000000001

>  <POPULARITY>  (586) 
14.9

>  <PROTECTED>  (586) 
TRUE

>  <SMILES>  (586) 
N[C@H](CCNC(=N)N)C(=O)O

>  <INCHIKEY>  (586) 
IFPQOXNWLSRZKX-GSVOUGTGSA-N

$$$$
D-Glu_OMe
     RDKit          2D

 11 10  0  0  0  0  0  0  0  0999 V2000
    1.7502    1.9632    0.0000 N   0  0  0  0  0  0  0  0  0  0  0  0
    1.6777    0.4649    0.0000 C   0  0  0  0  0  0  0  0  0  0  0  0
    0.3440   -0.2214    0.0000 C   0  0  0  0  0  0  0  0  0  0  0  0
   -0.9173    0.5905    0.0000 C   0  0  0  0  0  0  0  0  0  0  0  0
   -2.2511   -0.0959    0.0000 C   0  0  0  0  0  0  0  0  0  0  0  0
   -2.3235   -1.5941    0.0000 O   0  0  0  0  0  0  0  0  0  0  0  0
   -3.5123    0.7160    0.0000 O   0  0  0  0  0  0  0  0  0  0  0  0
   -4.8461    0.0297    0.0000 C   0  0  0  0  0  0  0  0  0  0  0  0
    2.9390   -0.3470    0.0000 C   0  0  0  0  0  0  0  0  0  0  0  0
    2.8665   -1.8452    0.0000 O   0  0  0  0  0  0  0  0  0  0  0  0
    4.2728    0.3394    0.0000 O   0  0  0  0  0  0  0  0  0  0  0  0
  2  1  1  1
  2  3  1  0
  3  4  1  0
  4  5  1  0
  5  6  2  0
  5  7  1  0
  7  8  1  0
  2  9  1  0
  9 10  2  0
  9 11  1  0
M  END
>  <rName>  (587) 
D-Glu_OMe

>  <PQ_SYMBOL>  (587) 
D-Glu_OMe

>  <FULL_NAME>  (587) 
5-Methyl D-glutamate

>  <IUPAC_CONDENSED>  (587) 
D-Glu(OMe)

>  <IUPAC>  (587) 
(2R)-2-amino-4-(methoxycarbonyl)butanoic acid

>  <TYPE>  (587) 
Backbone

>  <CLASS>  (587) 
alpha

>  <ANALOG>  (587) 
Glu

>  <MOL_WT>  (587) 
161.15699999999998

>  <LOGP>  (587) 
-0.6484999999999999

>  <TPSA>  (587) 
89.62000000000002

>  <POPULARITY>  (587) 
9.6

>  <PROTECTED>  (587) 
TRUE

>  <SMILES>  (587) 
N[C@H](CCC(=O)OC)C(=O)O

>  <INCHIKEY>  (587) 
ZGEYCCHDTIDZAE-SCSAIBSYSA-N

$$$$
D-Ala_guanidino
     RDKit          2D

 10  9  0  0  0  0  0  0  0  0999 V2000
    1.2717    1.9622    0.0000 N   0  0  0  0  0  0  0  0  0  0  0  0
    1.1946    0.4642    0.0000 C   0  0  0  0  0  0  0  0  0  0  0  0
   -0.1413   -0.2180    0.0000 C   0  0  0  0  0  0  0  0  0  0  0  0
   -1.4001    0.5978    0.0000 N   0  0  0  0  0  0  0  0  0  0  0  0
   -2.7359   -0.0845    0.0000 C   0  0  0  0  0  0  0  0  0  0  0  0
   -2.8131   -1.5825    0.0000 N   0  0  0  0  0  0  0  0  0  0  0  0
   -3.9947    0.7313    0.0000 N   0  0  0  0  0  0  0  0  0  0  0  0
    2.4533   -0.3516    0.0000 C   0  0  0  0  0  0  0  0  0  0  0  0
    2.3762   -1.8496    0.0000 O   0  0  0  0  0  0  0  0  0  0  0  0
    3.7892    0.3306    0.0000 O   0  0  0  0  0  0  0  0  0  0  0  0
  2  1  1  1
  2  3  1  0
  3  4  1  0
  4  5  1  0
  5  6  2  0
  5  7  1  0
  2  8  1  0
  8  9  2  0
  8 10  1  0
M  END
>  <rName>  (588) 
D-Ala_guanidino

>  <PQ_SYMBOL>  (588) 
D-Ala_guanidino

>  <FULL_NAME>  (588) 
3-Carbamimidamido-D-Alanine

>  <IUPAC_CONDENSED>  (588) 
D-Ala(guanidino)

>  <IUPAC>  (588) 
(2R)-2-amino-3-(((amino)(imino)methyl)amino)propanoic acid

>  <TYPE>  (588) 
Backbone

>  <CLASS>  (588) 
alpha

>  <ANALOG>  (588) 
Arg

>  <MOL_WT>  (588) 
146.15

>  <LOGP>  (588) 
-2.1186299999999996

>  <TPSA>  (588) 
125.22000000000001

>  <POPULARITY>  (588) 
6

>  <PROTECTED>  (588) 
TRUE

>  <SMILES>  (588) 
N[C@H](CNC(=N)N)C(=O)O

>  <INCHIKEY>  (588) 
XNBJHKABANTVCP-UWTATZPHSA-N

$$$$
D-Hcy
     RDKit          2D

  8  7  0  0  0  0  0  0  0  0999 V2000
   -0.2517   -1.8862    0.0000 N   0  0  0  0  0  0  0  0  0  0  0  0
   -0.3100   -0.3873    0.0000 C   0  0  0  0  0  0  0  0  0  0  0  0
    0.9590    0.4126    0.0000 C   0  0  0  0  0  0  0  0  0  0  0  0
    2.2862   -0.2864    0.0000 C   0  0  0  0  0  0  0  0  0  0  0  0
    3.5551    0.5134    0.0000 S   0  0  0  0  0  0  0  0  0  0  0  0
   -1.6371    0.3117    0.0000 C   0  0  0  0  0  0  0  0  0  0  0  0
   -1.6954    1.8105    0.0000 O   0  0  0  0  0  0  0  0  0  0  0  0
   -2.9061   -0.4882    0.0000 O   0  0  0  0  0  0  0  0  0  0  0  0
  2  1  1  1
  2  3  1  0
  3  4  1  0
  4  5  1  0
  2  6  1  0
  6  7  2  0
  6  8  1  0
M  END
>  <rName>  (589) 
D-Hcy

>  <PQ_SYMBOL>  (589) 
D-Hcy

>  <FULL_NAME>  (589) 
Homo-D-Cysteine

>  <IUPAC_CONDENSED>  (589) 
D-Hcy

>  <IUPAC>  (589) 
(2R)-2-amino-4-sulfanylbutanoic acid

>  <TYPE>  (589) 
Backbone

>  <CLASS>  (589) 
alpha

>  <ANALOG>  (589) 
Cys

>  <MOL_WT>  (589) 
135.188

>  <LOGP>  (589) 
-0.28180000000000033

>  <TPSA>  (589) 
63.32000000000001

>  <POPULARITY>  (589) 
24.6

>  <PROTECTED>  (589) 
TRUE

>  <SMILES>  (589) 
N[C@H](CCS)C(=O)O

>  <INCHIKEY>  (589) 
FFFHZYDWPBMWHY-GSVOUGTGSA-N

$$$$
D-hLeu
     RDKit          2D

 10  9  0  0  0  0  0  0  0  0999 V2000
    1.2717    1.9622    0.0000 N   0  0  0  0  0  0  0  0  0  0  0  0
    1.1946    0.4642    0.0000 C   0  0  0  0  0  0  0  0  0  0  0  0
   -0.1413   -0.2180    0.0000 C   0  0  0  0  0  0  0  0  0  0  0  0
   -1.4001    0.5978    0.0000 C   0  0  0  0  0  0  0  0  0  0  0  0
   -2.7359   -0.0845    0.0000 C   0  0  0  0  0  0  0  0  0  0  0  0
   -3.9947    0.7313    0.0000 C   0  0  0  0  0  0  0  0  0  0  0  0
   -2.8131   -1.5825    0.0000 C   0  0  0  0  0  0  0  0  0  0  0  0
    2.4533   -0.3516    0.0000 C   0  0  0  0  0  0  0  0  0  0  0  0
    2.3762   -1.8496    0.0000 O   0  0  0  0  0  0  0  0  0  0  0  0
    3.7892    0.3306    0.0000 O   0  0  0  0  0  0  0  0  0  0  0  0
  2  1  1  1
  2  3  1  0
  3  4  1  0
  4  5  1  0
  5  6  1  0
  5  7  1  0
  2  8  1  0
  8  9  2  0
  8 10  1  0
M  END
>  <rName>  (590) 
D-hLeu

>  <PQ_SYMBOL>  (590) 
D-hLeu

>  <FULL_NAME>  (590) 
5-Methyl-D-Norleucine

>  <IUPAC_CONDENSED>  (590) 
D-hLeu

>  <IUPAC>  (590) 
(2R)-2-amino-5-methylhexanoic acid

>  <TYPE>  (590) 
Backbone

>  <CLASS>  (590) 
alpha

>  <ANALOG>  (590) 
Leu

>  <MOL_WT>  (590) 
145.202

>  <LOGP>  (590) 
0.8344999999999998

>  <TPSA>  (590) 
63.32000000000001

>  <POPULARITY>  (590) 
19.7

>  <PROTECTED>  (590) 
TRUE

>  <SMILES>  (590) 
N[C@H](CCC(C)C)C(=O)O

>  <INCHIKEY>  (590) 
FMUMEWVNYMUECA-ZCFIWIBFSA-N

$$$$
D-Phe_4NH2
     RDKit          2D

 13 13  0  0  0  0  0  0  0  0999 V2000
   -1.5766    1.6851    0.0000 N   0  0  0  0  0  0  0  0  0  0  0  0
   -2.0128    0.2500    0.0000 C   0  0  0  0  0  0  0  0  0  0  0  0
   -0.9880   -0.8454    0.0000 C   0  0  0  0  0  0  0  0  0  0  0  0
    0.4730   -0.5055    0.0000 C   0  0  0  0  0  0  0  0  0  0  0  0
    0.9092    0.9296    0.0000 C   0  0  0  0  0  0  0  0  0  0  0  0
    2.3702    1.2695    0.0000 C   0  0  0  0  0  0  0  0  0  0  0  0
    3.3950    0.1741    0.0000 C   0  0  0  0  0  0  0  0  0  0  0  0
    4.8560    0.5140    0.0000 N   0  0  0  0  0  0  0  0  0  0  0  0
    2.9588   -1.2611    0.0000 C   0  0  0  0  0  0  0  0  0  0  0  0
    1.4978   -1.6009    0.0000 C   0  0  0  0  0  0  0  0  0  0  0  0
   -3.4738   -0.0899    0.0000 C   0  0  0  0  0  0  0  0  0  0  0  0
   -3.9100   -1.5250    0.0000 O   0  0  0  0  0  0  0  0  0  0  0  0
   -4.4986    1.0055    0.0000 O   0  0  0  0  0  0  0  0  0  0  0  0
  2  1  1  6
  2  3  1  0
  3  4  1  0
  4  5  1  0
  5  6  2  0
  6  7  1  0
  7  8  1  0
  7  9  2  0
  9 10  1  0
  2 11  1  0
 11 12  2  0
 11 13  1  0
 10  4  2  0
M  END
>  <rName>  (591) 
D-Phe_4NH2

>  <PQ_SYMBOL>  (591) 
D-Phe_4NH2

>  <FULL_NAME>  (591) 
4-Amino-D-Phenylalanine

>  <IUPAC_CONDENSED>  (591) 
D-Phe(4-NH2)

>  <IUPAC>  (591) 
(2R)-2-amino-3-(4-aminophenyl)propanoic acid

>  <TYPE>  (591) 
Backbone

>  <CLASS>  (591) 
alpha

>  <ANALOG>  (591) 
Phe

>  <MOL_WT>  (591) 
180.207

>  <LOGP>  (591) 
0.22319999999999962

>  <TPSA>  (591) 
89.34

>  <POPULARITY>  (591) 
16.2

>  <PROTECTED>  (591) 
TRUE

>  <SMILES>  (591) 
N[C@H](Cc1(ccc(N)cc1))C(=O)O

>  <INCHIKEY>  (591) 
CMUHFUGDYMFHEI-MRVPVSSYSA-N

$$$$
D-hPhe
     RDKit          2D

 13 13  0  0  0  0  0  0  0  0999 V2000
   -2.6715   -1.9340    0.0000 N   0  0  0  0  0  0  0  0  0  0  0  0
   -2.4130   -0.4565    0.0000 C   0  0  0  0  0  0  0  0  0  0  0  0
   -1.0042    0.0585    0.0000 C   0  0  0  0  0  0  0  0  0  0  0  0
    0.1462   -0.9041    0.0000 C   0  0  0  0  0  0  0  0  0  0  0  0
    1.5550   -0.3891    0.0000 C   0  0  0  0  0  0  0  0  0  0  0  0
    1.8135    1.0885    0.0000 C   0  0  0  0  0  0  0  0  0  0  0  0
    3.2223    1.6034    0.0000 C   0  0  0  0  0  0  0  0  0  0  0  0
    4.3727    0.6408    0.0000 C   0  0  0  0  0  0  0  0  0  0  0  0
    4.1143   -0.8367    0.0000 C   0  0  0  0  0  0  0  0  0  0  0  0
    2.7054   -1.3517    0.0000 C   0  0  0  0  0  0  0  0  0  0  0  0
   -3.5634    0.5061    0.0000 C   0  0  0  0  0  0  0  0  0  0  0  0
   -3.3050    1.9837    0.0000 O   0  0  0  0  0  0  0  0  0  0  0  0
   -4.9723   -0.0089    0.0000 O   0  0  0  0  0  0  0  0  0  0  0  0
  2  1  1  1
  2  3  1  0
  3  4  1  0
  4  5  1  0
  5  6  2  0
  6  7  1  0
  7  8  2  0
  8  9  1  0
  9 10  2  0
  2 11  1  0
 11 12  2  0
 11 13  1  0
 10  5  1  0
M  END
>  <rName>  (592) 
D-hPhe

>  <PQ_SYMBOL>  (592) 
D-hPhe

>  <FULL_NAME>  (592) 
Homo-D-Phenylalanine

>  <IUPAC_CONDENSED>  (592) 
D-hPhe

>  <IUPAC>  (592) 
(2R)-2-amino-4-phenylbutanoic acid

>  <TYPE>  (592) 
Backbone

>  <CLASS>  (592) 
alpha

>  <ANALOG>  (592) 
Phe

>  <MOL_WT>  (592) 
179.21899999999997

>  <LOGP>  (592) 
1.0311

>  <TPSA>  (592) 
63.32000000000001

>  <POPULARITY>  (592) 
27.3

>  <PROTECTED>  (592) 
TRUE

>  <SMILES>  (592) 
N[C@H](CCc1(ccccc1))C(=O)O

>  <INCHIKEY>  (592) 
JTTHKOPSMAVJFE-SECBINFHSA-N

$$$$
D-hArg
     RDKit          2D

 13 12  0  0  0  0  0  0  0  0999 V2000
   -2.9072    1.8790    0.0000 N   0  0  0  0  0  0  0  0  0  0  0  0
   -2.9824    0.3808    0.0000 C   0  0  0  0  0  0  0  0  0  0  0  0
   -1.7226   -0.4334    0.0000 C   0  0  0  0  0  0  0  0  0  0  0  0
   -0.3876    0.2505    0.0000 C   0  0  0  0  0  0  0  0  0  0  0  0
    0.8722   -0.5637    0.0000 C   0  0  0  0  0  0  0  0  0  0  0  0
    2.2072    0.1202    0.0000 C   0  0  0  0  0  0  0  0  0  0  0  0
    3.4670   -0.6940    0.0000 N   0  0  0  0  0  0  0  0  0  0  0  0
    4.8020   -0.0101    0.0000 C   0  0  0  0  0  0  0  0  0  0  0  0
    4.8772    1.4880    0.0000 N   0  0  0  0  0  0  0  0  0  0  0  0
    6.0618   -0.8243    0.0000 N   0  0  0  0  0  0  0  0  0  0  0  0
   -4.3175   -0.3030    0.0000 C   0  0  0  0  0  0  0  0  0  0  0  0
   -4.3927   -1.8012    0.0000 O   0  0  0  0  0  0  0  0  0  0  0  0
   -5.5772    0.5112    0.0000 O   0  0  0  0  0  0  0  0  0  0  0  0
  2  1  1  6
  2  3  1  0
  3  4  1  0
  4  5  1  0
  5  6  1  0
  6  7  1  0
  7  8  1  0
  8  9  2  0
  8 10  1  0
  2 11  1  0
 11 12  2  0
 11 13  1  0
M  END
>  <rName>  (593) 
D-hArg

>  <PQ_SYMBOL>  (593) 
D-hArg

>  <FULL_NAME>  (593) 
Homo-D-Arginine

>  <IUPAC_CONDENSED>  (593) 
D-hArg

>  <IUPAC>  (593) 
(2R)-2-amino-6-(((amino)(imino)methyl)amino)hexanoic acid

>  <TYPE>  (593) 
Backbone

>  <CLASS>  (593) 
alpha

>  <ANALOG>  (593) 
Arg

>  <MOL_WT>  (593) 
188.231

>  <LOGP>  (593) 
-0.9483299999999986

>  <TPSA>  (593) 
125.22000000000001

>  <POPULARITY>  (593) 
13.9

>  <PROTECTED>  (593) 
TRUE

>  <SMILES>  (593) 
N[C@H](CCCCNC(=N)N)C(=O)O

>  <INCHIKEY>  (593) 
QUOGESRFPZDMMT-RXMQYKEDSA-N

$$$$
D-Trp_5OH
     RDKit          2D

 16 17  0  0  0  0  0  0  0  0999 V2000
   -3.0564   -1.5854    0.0000 N   0  0  0  0  0  0  0  0  0  0  0  0
   -2.8364   -0.1016    0.0000 C   0  0  0  0  0  0  0  0  0  0  0  0
   -1.4415    0.4499    0.0000 C   0  0  0  0  0  0  0  0  0  0  0  0
   -0.2664   -0.4825    0.0000 C   0  0  0  0  0  0  0  0  0  0  0  0
   -0.3301   -1.9811    0.0000 C   0  0  0  0  0  0  0  0  0  0  0  0
    1.0756   -2.5048    0.0000 N   0  0  0  0  0  0  0  0  0  0  0  0
    2.0079   -1.3297    0.0000 C   0  0  0  0  0  0  0  0  0  0  0  0
    3.5050   -1.2364    0.0000 C   0  0  0  0  0  0  0  0  0  0  0  0
    4.1727    0.1068    0.0000 C   0  0  0  0  0  0  0  0  0  0  0  0
    3.3433    1.3567    0.0000 C   0  0  0  0  0  0  0  0  0  0  0  0
    4.0110    2.6999    0.0000 O   0  0  0  0  0  0  0  0  0  0  0  0
    1.8462    1.2633    0.0000 C   0  0  0  0  0  0  0  0  0  0  0  0
    1.1785   -0.0799    0.0000 C   0  0  0  0  0  0  0  0  0  0  0  0
   -4.0115    0.8308    0.0000 C   0  0  0  0  0  0  0  0  0  0  0  0
   -3.7915    2.3146    0.0000 O   0  0  0  0  0  0  0  0  0  0  0  0
   -5.4064    0.2794    0.0000 O   0  0  0  0  0  0  0  0  0  0  0  0
  2  1  1  1
  2  3  1  0
  3  4  1  0
  4  5  2  0
  5  6  1  0
  6  7  1  0
  7  8  1  0
  8  9  2  0
  9 10  1  0
 10 11  1  0
 10 12  2  0
 12 13  1  0
  2 14  1  0
 14 15  2  0
 14 16  1  0
 13  7  2  0
 13  4  1  0
M  END
>  <rName>  (594) 
D-Trp_5OH

>  <PQ_SYMBOL>  (594) 
D-Trp_5OH

>  <FULL_NAME>  (594) 
5-Hydroxy-D-Tryptophan

>  <IUPAC_CONDENSED>  (594) 
D-Trp(5-OH)

>  <IUPAC>  (594) 
(2R)-2-amino-3-(5-hydroxy-1H-indol-3-yl)propanoic acid

>  <TYPE>  (594) 
Backbone

>  <CLASS>  (594) 
alpha

>  <ANALOG>  (594) 
Trp

>  <MOL_WT>  (594) 
220.22799999999998

>  <LOGP>  (594) 
0.8279000000000003

>  <TPSA>  (594) 
99.34000000000002

>  <POPULARITY>  (594) 
9

>  <PROTECTED>  (594) 
TRUE

>  <SMILES>  (594) 
N[C@H](Cc2(c[nH]c1(ccc(O)cc12)))C(=O)O

>  <INCHIKEY>  (594) 
LDCYZAJDBXYCGN-SECBINFHSA-N

$$$$
D-Hse
     RDKit          2D

  8  7  0  0  0  0  0  0  0  0999 V2000
   -0.2517   -1.8862    0.0000 N   0  0  0  0  0  0  0  0  0  0  0  0
   -0.3100   -0.3873    0.0000 C   0  0  0  0  0  0  0  0  0  0  0  0
    0.9590    0.4126    0.0000 C   0  0  0  0  0  0  0  0  0  0  0  0
    2.2862   -0.2864    0.0000 C   0  0  0  0  0  0  0  0  0  0  0  0
    3.5551    0.5134    0.0000 O   0  0  0  0  0  0  0  0  0  0  0  0
   -1.6371    0.3117    0.0000 C   0  0  0  0  0  0  0  0  0  0  0  0
   -1.6954    1.8105    0.0000 O   0  0  0  0  0  0  0  0  0  0  0  0
   -2.9061   -0.4882    0.0000 O   0  0  0  0  0  0  0  0  0  0  0  0
  2  1  1  1
  2  3  1  0
  3  4  1  0
  4  5  1  0
  2  6  1  0
  6  7  2  0
  6  8  1  0
M  END
>  <rName>  (595) 
D-Hse

>  <PQ_SYMBOL>  (595) 
D-Hse

>  <FULL_NAME>  (595) 
Homo-D-Serine

>  <IUPAC_CONDENSED>  (595) 
D-Hse

>  <IUPAC>  (595) 
(2R)-2-amino-4-hydroxybutanoic acid

>  <TYPE>  (595) 
Backbone

>  <CLASS>  (595) 
alpha

>  <ANALOG>  (595) 
Ser

>  <MOL_WT>  (595) 
119.11999999999998

>  <LOGP>  (595) 
-1.2192999999999998

>  <TPSA>  (595) 
83.55

>  <POPULARITY>  (595) 
13.1

>  <PROTECTED>  (595) 
TRUE

>  <SMILES>  (595) 
N[C@H](CCO)C(=O)O

>  <INCHIKEY>  (595) 
UKAUYVFTDYCKQA-GSVOUGTGSA-N

$$$$
D-Gly_indan2yl
     RDKit          2D

 14 15  0  0  0  0  0  0  0  0999 V2000
   -2.8664   -1.9991    0.0000 N   0  0  0  0  0  0  0  0  0  0  0  0
   -2.3059   -0.6077    0.0000 C   0  0  0  0  0  0  0  0  0  0  0  0
   -0.8208   -0.3974    0.0000 C   0  0  0  0  0  0  0  0  0  0  0  0
    0.2224   -1.4753    0.0000 C   0  0  0  0  0  0  0  0  0  0  0  0
    1.5699   -0.8163    0.0000 C   0  0  0  0  0  0  0  0  0  0  0  0
    2.9612   -1.3767    0.0000 C   0  0  0  0  0  0  0  0  0  0  0  0
    4.1423   -0.4520    0.0000 C   0  0  0  0  0  0  0  0  0  0  0  0
    3.9319    1.0332    0.0000 C   0  0  0  0  0  0  0  0  0  0  0  0
    2.5406    1.5936    0.0000 C   0  0  0  0  0  0  0  0  0  0  0  0
    1.3595    0.6689    0.0000 C   0  0  0  0  0  0  0  0  0  0  0  0
   -0.1180    0.9278    0.0000 C   0  0  0  0  0  0  0  0  0  0  0  0
   -3.2307    0.5733    0.0000 C   0  0  0  0  0  0  0  0  0  0  0  0
   -2.6702    1.9647    0.0000 O   0  0  0  0  0  0  0  0  0  0  0  0
   -4.7159    0.3630    0.0000 O   0  0  0  0  0  0  0  0  0  0  0  0
  2  1  1  1
  2  3  1  0
  3  4  1  0
  4  5  1  0
  5  6  2  0
  6  7  1  0
  7  8  2  0
  8  9  1  0
  9 10  2  0
 10 11  1  0
  2 12  1  0
 12 13  2  0
 12 14  1  0
 10  5  1  0
 11  3  1  0
M  END
>  <rName>  (596) 
D-Gly_indan2yl

>  <PQ_SYMBOL>  (596) 
D-Gly_indan2yl

>  <FULL_NAME>  (596) 
D-2-Indanylglycine

>  <IUPAC_CONDENSED>  (596) 
D-Gly(indan-2-yl)

>  <IUPAC>  (596) 
(2R)-2-amino-2-(indan-2-yl)acetic acid

>  <TYPE>  (596) 
Backbone

>  <CLASS>  (596) 
alpha

>  <ANALOG>  (596) 
Phe

>  <MOL_WT>  (596) 
191.22999999999996

>  <LOGP>  (596) 
0.8132999999999999

>  <TPSA>  (596) 
63.32000000000001

>  <POPULARITY>  (596) 
16.4

>  <PROTECTED>  (596) 
TRUE

>  <SMILES>  (596) 
N[C@H](C2(Cc1(ccccc1C2)))C(=O)O

>  <INCHIKEY>  (596) 
GUDHMDVRURNAHL-SNVBAGLBSA-N

$$$$
dI
     RDKit          2D

  9  8  0  0  0  0  0  0  0  0999 V2000
    0.0000    2.3333    0.0000 N   0  0  0  0  0  0  0  0  0  0  0  0
    0.0000    0.8333    0.0000 C   0  0  0  0  0  0  0  0  0  0  0  0
   -1.2990    0.0833    0.0000 C   0  0  0  0  0  0  0  0  0  0  0  0
   -2.5981    0.8333    0.0000 C   0  0  0  0  0  0  0  0  0  0  0  0
   -1.2990   -1.4167    0.0000 C   0  0  0  0  0  0  0  0  0  0  0  0
   -0.0000   -2.1667    0.0000 C   0  0  0  0  0  0  0  0  0  0  0  0
    1.2990    0.0833    0.0000 C   0  0  0  0  0  0  0  0  0  0  0  0
    1.2990   -1.4167    0.0000 O   0  0  0  0  0  0  0  0  0  0  0  0
    2.5981    0.8333    0.0000 O   0  0  0  0  0  0  0  0  0  0  0  0
  2  1  1  1
  2  3  1  0
  3  4  1  1
  3  5  1  0
  5  6  1  0
  2  7  1  0
  7  8  2  0
  7  9  1  0
M  END
>  <rName>  (597) 
dI

>  <PQ_SYMBOL>  (597) 
dI

>  <FULL_NAME>  (597) 
D-Isoleucine, (2R,3S)-Isoleucine

>  <IUPAC_CONDENSED>  (597) 
D-Ile

>  <IUPAC>  (597) 
(2R,3R)-2-amino-3-methylpentanoic acid

>  <TYPE>  (597) 
Backbone

>  <CLASS>  (597) 
alpha

>  <ANALOG>  (597) 
Ile

>  <MOL_WT>  (597) 
131.175

>  <LOGP>  (597) 
0.44439999999999985

>  <TPSA>  (597) 
63.32000000000001

>  <POPULARITY>  (597) 
45.2

>  <PROTECTED>  (597) 
TRUE

>  <SMILES>  (597) 
N[C@H]([C@H](C)CC)C(=O)O

>  <INCHIKEY>  (597) 
AGPKZVBTJJNPAG-RFZPGFLSSA-N

$$$$
D-Pen
     RDKit          2D

  9  8  0  0  0  0  0  0  0  0999 V2000
   -0.1862    2.0800    0.0000 N   0  0  0  0  0  0  0  0  0  0  0  0
   -0.1560    0.5803    0.0000 C   0  0  0  0  0  0  0  0  0  0  0  0
    1.1578   -0.1434    0.0000 C   0  0  0  0  0  0  0  0  0  0  0  0
    1.8815    1.1705    0.0000 C   0  0  0  0  0  0  0  0  0  0  0  0
    0.4341   -1.4573    0.0000 C   0  0  0  0  0  0  0  0  0  0  0  0
    2.4717   -0.8671    0.0000 S   0  0  0  0  0  0  0  0  0  0  0  0
   -1.4397   -0.1957    0.0000 C   0  0  0  0  0  0  0  0  0  0  0  0
   -1.4095   -1.6954    0.0000 O   0  0  0  0  0  0  0  0  0  0  0  0
   -2.7536    0.5280    0.0000 O   0  0  0  0  0  0  0  0  0  0  0  0
  2  1  1  6
  2  3  1  0
  3  4  1  0
  3  5  1  0
  3  6  1  0
  2  7  1  0
  7  8  2  0
  7  9  1  0
M  END
>  <rName>  (598) 
D-Pen

>  <PQ_SYMBOL>  (598) 
D-Pen

>  <FULL_NAME>  (598) 
D-Penicillamine

>  <IUPAC_CONDENSED>  (598) 
D-Pen

>  <IUPAC>  (598) 
(2S)-2-amino-3-methyl-3-sulfanylbutanoic acid

>  <TYPE>  (598) 
Backbone

>  <CLASS>  (598) 
alpha

>  <ANALOG>  (598) 
Val

>  <MOL_WT>  (598) 
149.215

>  <LOGP>  (598) 
0.1066999999999998

>  <TPSA>  (598) 
63.32000000000001

>  <POPULARITY>  (598) 
33.6

>  <PROTECTED>  (598) 
TRUE

>  <SMILES>  (598) 
N[C@H](C(C)(C)S)C(=O)O

>  <INCHIKEY>  (598) 
VVNCNSJFMMFHPL-VKHMYHEASA-N

$$$$
D-Phe_34diMe
     RDKit          2D

 14 14  0  0  0  0  0  0  0  0999 V2000
   -2.0094    1.6916    0.0000 N   0  0  0  0  0  0  0  0  0  0  0  0
   -2.3243    0.2250    0.0000 C   0  0  0  0  0  0  0  0  0  0  0  0
   -1.2116   -0.7809    0.0000 C   0  0  0  0  0  0  0  0  0  0  0  0
    0.2159   -0.3203    0.0000 C   0  0  0  0  0  0  0  0  0  0  0  0
    0.5308    1.1463    0.0000 C   0  0  0  0  0  0  0  0  0  0  0  0
    1.9583    1.6069    0.0000 C   0  0  0  0  0  0  0  0  0  0  0  0
    3.0710    0.6009    0.0000 C   0  0  0  0  0  0  0  0  0  0  0  0
    4.4985    1.0615    0.0000 C   0  0  0  0  0  0  0  0  0  0  0  0
    2.7561   -0.8657    0.0000 C   0  0  0  0  0  0  0  0  0  0  0  0
    3.8688   -1.8716    0.0000 C   0  0  0  0  0  0  0  0  0  0  0  0
    1.3286   -1.3263    0.0000 C   0  0  0  0  0  0  0  0  0  0  0  0
   -3.7518   -0.2356    0.0000 C   0  0  0  0  0  0  0  0  0  0  0  0
   -4.0666   -1.7022    0.0000 O   0  0  0  0  0  0  0  0  0  0  0  0
   -4.8644    0.7704    0.0000 O   0  0  0  0  0  0  0  0  0  0  0  0
  2  1  1  6
  2  3  1  0
  3  4  1  0
  4  5  1  0
  5  6  2  0
  6  7  1  0
  7  8  1  0
  7  9  2  0
  9 10  1  0
  9 11  1  0
  2 12  1  0
 12 13  2  0
 12 14  1  0
 11  4  2  0
M  END
>  <rName>  (599) 
D-Phe_34diMe

>  <PQ_SYMBOL>  (599) 
D-Phe_34diMe

>  <FULL_NAME>  (599) 
3,4-Dimethyl-D-Phenylalanine

>  <IUPAC_CONDENSED>  (599) 
D-Phe(3,4-diMe)

>  <IUPAC>  (599) 
(2R)-2-amino-3-(3,4-dimethylphenyl)propanoic acid

>  <TYPE>  (599) 
Backbone

>  <CLASS>  (599) 
alpha

>  <ANALOG>  (599) 
Phe

>  <MOL_WT>  (599) 
193.24599999999998

>  <LOGP>  (599) 
1.25784

>  <TPSA>  (599) 
63.32000000000001

>  <POPULARITY>  (599) 
6.1

>  <PROTECTED>  (599) 
TRUE

>  <SMILES>  (599) 
N[C@H](Cc1(ccc(C)c(C)c1))C(=O)O

>  <INCHIKEY>  (599) 
PHTDECHKNDJYMG-SNVBAGLBSA-N

$$$$
D-Phe_3OH
     RDKit          2D

 13 13  0  0  0  0  0  0  0  0999 V2000
   -1.7680    1.6690    0.0000 N   0  0  0  0  0  0  0  0  0  0  0  0
   -1.9932    0.1860    0.0000 C   0  0  0  0  0  0  0  0  0  0  0  0
   -0.8215   -0.7506    0.0000 C   0  0  0  0  0  0  0  0  0  0  0  0
    0.5754   -0.2041    0.0000 C   0  0  0  0  0  0  0  0  0  0  0  0
    0.8006    1.2789    0.0000 C   0  0  0  0  0  0  0  0  0  0  0  0
    2.1976    1.8254    0.0000 C   0  0  0  0  0  0  0  0  0  0  0  0
    3.3693    0.8888    0.0000 C   0  0  0  0  0  0  0  0  0  0  0  0
    3.1441   -0.5942    0.0000 C   0  0  0  0  0  0  0  0  0  0  0  0
    4.3158   -1.5307    0.0000 O   0  0  0  0  0  0  0  0  0  0  0  0
    1.7472   -1.1406    0.0000 C   0  0  0  0  0  0  0  0  0  0  0  0
   -3.3901   -0.3605    0.0000 C   0  0  0  0  0  0  0  0  0  0  0  0
   -3.6153   -1.8435    0.0000 O   0  0  0  0  0  0  0  0  0  0  0  0
   -4.5618    0.5760    0.0000 O   0  0  0  0  0  0  0  0  0  0  0  0
  2  1  1  6
  2  3  1  0
  3  4  1  0
  4  5  2  0
  5  6  1  0
  6  7  2  0
  7  8  1  0
  8  9  1  0
  8 10  2  0
  2 11  1  0
 11 12  2  0
 11 13  1  0
 10  4  1  0
M  END
>  <rName>  (600) 
D-Phe_3OH

>  <PQ_SYMBOL>  (600) 
D-Phe_3OH

>  <FULL_NAME>  (600) 
3-Hydroxy-D-Phenylalanine

>  <IUPAC_CONDENSED>  (600) 
D-Phe(3-OH)

>  <IUPAC>  (600) 
(2R)-2-amino-3-(3-hydroxyphenyl)propanoic acid

>  <TYPE>  (600) 
Backbone

>  <CLASS>  (600) 
alpha

>  <ANALOG>  (600) 
Tyr

>  <MOL_WT>  (600) 
181.19099999999997

>  <LOGP>  (600) 
0.3466

>  <TPSA>  (600) 
83.55

>  <POPULARITY>  (600) 
10.7

>  <PROTECTED>  (600) 
TRUE

>  <SMILES>  (600) 
N[C@H](Cc1(cccc(O)c1))C(=O)O

>  <INCHIKEY>  (600) 
JZKXXXDKRQWDET-MRVPVSSYSA-N

$$$$
D-2Nal
     RDKit          2D

 16 17  0  0  0  0  0  0  0  0999 V2000
   -2.0722    1.6358    0.0000 N   0  0  0  0  0  0  0  0  0  0  0  0
   -2.7778    0.3121    0.0000 C   0  0  0  0  0  0  0  0  0  0  0  0
   -1.9842   -0.9608    0.0000 C   0  0  0  0  0  0  0  0  0  0  0  0
   -0.4851   -0.9100    0.0000 C   0  0  0  0  0  0  0  0  0  0  0  0
    0.3084   -2.1829    0.0000 C   0  0  0  0  0  0  0  0  0  0  0  0
    1.8076   -2.1322    0.0000 C   0  0  0  0  0  0  0  0  0  0  0  0
    2.5132   -0.8085    0.0000 C   0  0  0  0  0  0  0  0  0  0  0  0
    4.0123   -0.7577    0.0000 C   0  0  0  0  0  0  0  0  0  0  0  0
    4.7179    0.5659    0.0000 C   0  0  0  0  0  0  0  0  0  0  0  0
    3.9244    1.8388    0.0000 C   0  0  0  0  0  0  0  0  0  0  0  0
    2.4253    1.7881    0.0000 C   0  0  0  0  0  0  0  0  0  0  0  0
    1.7196    0.4644    0.0000 C   0  0  0  0  0  0  0  0  0  0  0  0
    0.2205    0.4136    0.0000 C   0  0  0  0  0  0  0  0  0  0  0  0
   -4.2769    0.2614    0.0000 C   0  0  0  0  0  0  0  0  0  0  0  0
   -4.9825   -1.0623    0.0000 O   0  0  0  0  0  0  0  0  0  0  0  0
   -5.0704    1.5343    0.0000 O   0  0  0  0  0  0  0  0  0  0  0  0
  2  1  1  6
  2  3  1  0
  3  4  1  0
  4  5  1  0
  5  6  2  0
  6  7  1  0
  7  8  2  0
  8  9  1  0
  9 10  2  0
 10 11  1  0
 11 12  2  0
 12 13  1  0
  2 14  1  0
 14 15  2  0
 14 16  1  0
 12  7  1  0
 13  4  2  0
M  END
>  <rName>  (601) 
D-2Nal

>  <PQ_SYMBOL>  (601) 
D-2Nal

>  <FULL_NAME>  (601) 
3-(2-Naphthyl)-D-Alanine

>  <IUPAC_CONDENSED>  (601) 
D-2Nal

>  <IUPAC>  (601) 
(2R)-2-amino-3-(naphthalen-2-yl)propanoic acid

>  <TYPE>  (601) 
Backbone

>  <CLASS>  (601) 
alpha

>  <ANALOG>  (601) 
Phe

>  <MOL_WT>  (601) 
215.25199999999998

>  <LOGP>  (601) 
1.7942

>  <TPSA>  (601) 
63.32000000000001

>  <POPULARITY>  (601) 
39.1

>  <PROTECTED>  (601) 
TRUE

>  <SMILES>  (601) 
N[C@H](Cc2(ccc1(ccccc1c2)))C(=O)O

>  <INCHIKEY>  (601) 
JPZXHKDZASGCLU-GFCCVEGCSA-N

$$$$
D-Tyr_3NO2
     RDKit          2D

 16 16  0  0  0  0  0  0  0  0999 V2000
   -2.7936    1.6481    0.0000 N   0  0  0  0  0  0  0  0  0  0  0  0
   -2.9203    0.1535    0.0000 C   0  0  0  0  0  0  0  0  0  0  0  0
   -1.6893   -0.7036    0.0000 C   0  0  0  0  0  0  0  0  0  0  0  0
   -0.3315   -0.0660    0.0000 C   0  0  0  0  0  0  0  0  0  0  0  0
   -0.2048    1.4287    0.0000 C   0  0  0  0  0  0  0  0  0  0  0  0
    1.1530    2.0662    0.0000 C   0  0  0  0  0  0  0  0  0  0  0  0
    2.3840    1.2092    0.0000 C   0  0  0  0  0  0  0  0  0  0  0  0
    3.7417    1.8468    0.0000 O   0  0  0  0  0  0  0  0  0  0  0  0
    2.2573   -0.2855    0.0000 C   0  0  0  0  0  0  0  0  0  0  0  0
    0.8995   -0.9230    0.0000 C   0  0  0  0  0  0  0  0  0  0  0  0
    3.4883   -1.1425    0.0000 N   0  0  0  0  0  0  0  0  0  0  0  0
    4.8461   -0.5049    0.0000 O   0  0  0  0  0  0  0  0  0  0  0  0
    3.3616   -2.6372    0.0000 O   0  0  0  0  0  0  0  0  0  0  0  0
   -4.2781   -0.4841    0.0000 C   0  0  0  0  0  0  0  0  0  0  0  0
   -4.4048   -1.9787    0.0000 O   0  0  0  0  0  0  0  0  0  0  0  0
   -5.5091    0.3730    0.0000 O   0  0  0  0  0  0  0  0  0  0  0  0
  2  1  1  6
  2  3  1  0
  3  4  1  0
  4  5  1  0
  5  6  2  0
  6  7  1  0
  7  8  1  0
  7  9  2  0
  9 10  1  0
  9 11  1  0
 11 12  2  0
 11 13  1  0
  2 14  1  0
 14 15  2  0
 14 16  1  0
 10  4  2  0
M  CHG  2  11   1  13  -1
M  END
>  <rName>  (602) 
D-Tyr_3NO2

>  <PQ_SYMBOL>  (602) 
D-Tyr_3NO2

>  <FULL_NAME>  (602) 
3-Nitro-D-Tyrosine

>  <IUPAC_CONDENSED>  (602) 
D-Tyr(3-NO2)

>  <IUPAC>  (602) 
(2R)-2-amino-3-(4-hydroxy-3-nitrophenyl)propanoic acid

>  <TYPE>  (602) 
Backbone

>  <CLASS>  (602) 
alpha

>  <ANALOG>  (602) 
Tyr

>  <MOL_WT>  (602) 
226.18799999999996

>  <LOGP>  (602) 
0.2547999999999999

>  <TPSA>  (602) 
126.69000000000001

>  <POPULARITY>  (602) 
6.6

>  <PROTECTED>  (602) 
TRUE

>  <SMILES>  (602) 
N[C@H](Cc1(ccc(O)c(c1)[N+](=O)[O-]))C(=O)O

>  <INCHIKEY>  (602) 
FBTSQILOGYXGMD-ZCFIWIBFSA-N

$$$$
D-Nle
     RDKit          2D

  9  8  0  0  0  0  0  0  0  0999 V2000
    0.7616   -1.8791    0.0000 N   0  0  0  0  0  0  0  0  0  0  0  0
    0.8459   -0.3815    0.0000 C   0  0  0  0  0  0  0  0  0  0  0  0
   -0.4089    0.4403    0.0000 C   0  0  0  0  0  0  0  0  0  0  0  0
   -1.7480   -0.2354    0.0000 C   0  0  0  0  0  0  0  0  0  0  0  0
   -3.0029    0.5864    0.0000 C   0  0  0  0  0  0  0  0  0  0  0  0
   -4.3420   -0.0894    0.0000 C   0  0  0  0  0  0  0  0  0  0  0  0
    2.1851    0.2943    0.0000 C   0  0  0  0  0  0  0  0  0  0  0  0
    2.2694    1.7919    0.0000 O   0  0  0  0  0  0  0  0  0  0  0  0
    3.4399   -0.5275    0.0000 O   0  0  0  0  0  0  0  0  0  0  0  0
  2  1  1  6
  2  3  1  0
  3  4  1  0
  4  5  1  0
  5  6  1  0
  2  7  1  0
  7  8  2  0
  7  9  1  0
M  END
>  <rName>  (603) 
D-Nle

>  <PQ_SYMBOL>  (603) 
D-Nle

>  <FULL_NAME>  (603) 
D-Norleucine

>  <IUPAC_CONDENSED>  (603) 
D-Nle

>  <IUPAC>  (603) 
(2R)-2-aminohexanoic acid

>  <TYPE>  (603) 
Backbone

>  <CLASS>  (603) 
alpha

>  <ANALOG>  (603) 
Leu

>  <MOL_WT>  (603) 
131.175

>  <LOGP>  (603) 
0.5884999999999998

>  <TPSA>  (603) 
63.32000000000001

>  <POPULARITY>  (603) 
42.2

>  <PROTECTED>  (603) 
TRUE

>  <SMILES>  (603) 
N[C@H](CCCC)C(=O)O

>  <INCHIKEY>  (603) 
LRQKBLKVPFOOQJ-RXMQYKEDSA-N

$$$$
D-Ala_naphth1yl
     RDKit          2D

 20 22  0  0  0  0  0  0  0  0999 V2000
   -2.7056    0.5283    0.0000 N   0  0  0  0  0  0  0  0  0  0  0  0
   -2.3890   -0.9379    0.0000 C   0  0  0  0  0  0  0  0  0  0  0  0
   -0.9609   -1.3968    0.0000 C   0  0  0  0  0  0  0  0  0  0  0  0
    0.1506   -0.3895    0.0000 C   0  0  0  0  0  0  0  0  0  0  0  0
    1.5787   -0.8484    0.0000 C   0  0  0  0  0  0  0  0  0  0  0  0
    1.8953   -2.3146    0.0000 C   0  0  0  0  0  0  0  0  0  0  0  0
    3.3234   -2.7734    0.0000 C   0  0  0  0  0  0  0  0  0  0  0  0
    4.4348   -1.7661    0.0000 C   0  0  0  0  0  0  0  0  0  0  0  0
    4.1182   -0.2999    0.0000 C   0  0  0  0  0  0  0  0  0  0  0  0
    2.6901    0.1590    0.0000 C   0  0  0  0  0  0  0  0  0  0  0  0
    2.3734    1.6252    0.0000 C   0  0  0  0  0  0  0  0  0  0  0  0
    0.9454    2.0840    0.0000 C   0  0  0  0  0  0  0  0  0  0  0  0
    0.6287    3.5502    0.0000 C   0  0  0  0  0  0  0  0  0  0  0  0
   -0.7994    4.0091    0.0000 C   0  0  0  0  0  0  0  0  0  0  0  0
   -1.9108    3.0018    0.0000 C   0  0  0  0  0  0  0  0  0  0  0  0
   -1.5942    1.5356    0.0000 C   0  0  0  0  0  0  0  0  0  0  0  0
   -0.1661    1.0767    0.0000 C   0  0  0  0  0  0  0  0  0  0  0  0
   -3.5004   -1.9453    0.0000 C   0  0  0  0  0  0  0  0  0  0  0  0
   -3.1838   -3.4115    0.0000 O   0  0  0  0  0  0  0  0  0  0  0  0
   -4.9285   -1.4864    0.0000 O   0  0  0  0  0  0  0  0  0  0  0  0
  2  1  1  6
  2  3  1  0
  3  4  1  0
  4  5  1  0
  5  6  2  0
  6  7  1  0
  7  8  2  0
  8  9  1  0
  9 10  2  0
 10 11  1  0
 11 12  2  0
 12 13  1  0
 13 14  2  0
 14 15  1  0
 15 16  2  0
 16 17  1  0
  2 18  1  0
 18 19  2  0
 18 20  1  0
 10  5  1  0
 17  4  2  0
 17 12  1  0
M  END
>  <rName>  (604) 
D-Ala_naphth1yl

>  <PQ_SYMBOL>  (604) 
D-Ala_naphth1yl

>  <FULL_NAME>  (604) 
3-Anthracen-9-yl-D-Alanine

>  <IUPAC_CONDENSED>  (604) 
D-Ala(naphth-1-yl)

>  <IUPAC>  (604) 
(2R)-2-amino-3-(anthracen-9-yl)propanoic acid

>  <TYPE>  (604) 
Backbone

>  <CLASS>  (604) 
alpha

>  <ANALOG>  (604) 
Phe

>  <MOL_WT>  (604) 
265.31199999999995

>  <LOGP>  (604) 
2.947400000000001

>  <TPSA>  (604) 
63.32000000000001

>  <POPULARITY>  (604) 
6.8

>  <PROTECTED>  (604) 
TRUE

>  <SMILES>  (604) 
N[C@H](Cc2(c1(ccccc1cc3(ccccc23))))C(=O)O

>  <INCHIKEY>  (604) 
MRVJUNXMEDRMRO-MRXNPFEDSA-N

$$$$
D-Nva
     RDKit          2D

  8  7  0  0  0  0  0  0  0  0999 V2000
   -0.2517   -1.8862    0.0000 N   0  0  0  0  0  0  0  0  0  0  0  0
   -0.3100   -0.3873    0.0000 C   0  0  0  0  0  0  0  0  0  0  0  0
    0.9590    0.4126    0.0000 C   0  0  0  0  0  0  0  0  0  0  0  0
    2.2862   -0.2864    0.0000 C   0  0  0  0  0  0  0  0  0  0  0  0
    3.5551    0.5134    0.0000 C   0  0  0  0  0  0  0  0  0  0  0  0
   -1.6371    0.3117    0.0000 C   0  0  0  0  0  0  0  0  0  0  0  0
   -1.6954    1.8105    0.0000 O   0  0  0  0  0  0  0  0  0  0  0  0
   -2.9061   -0.4882    0.0000 O   0  0  0  0  0  0  0  0  0  0  0  0
  2  1  1  1
  2  3  1  0
  3  4  1  0
  4  5  1  0
  2  6  1  0
  6  7  2  0
  6  8  1  0
M  END
>  <rName>  (605) 
D-Nva

>  <PQ_SYMBOL>  (605) 
D-Nva

>  <FULL_NAME>  (605) 
D-Norvaline

>  <IUPAC_CONDENSED>  (605) 
D-Nva

>  <IUPAC>  (605) 
(2R)-2-aminopentanoic acid

>  <TYPE>  (605) 
Backbone

>  <CLASS>  (605) 
alpha

>  <ANALOG>  (605) 
Val

>  <MOL_WT>  (605) 
117.14799999999998

>  <LOGP>  (605) 
0.19839999999999985

>  <TPSA>  (605) 
63.32000000000001

>  <POPULARITY>  (605) 
25

>  <PROTECTED>  (605) 
TRUE

>  <SMILES>  (605) 
N[C@H](CCC)C(=O)O

>  <INCHIKEY>  (605) 
SNDPXSYFESPGGJ-SCSAIBSYSA-N

$$$$
D-Ser_Ac
     RDKit          2D

 10  9  0  0  0  0  0  0  0  0999 V2000
   -1.2717    1.9622    0.0000 N   0  0  0  0  0  0  0  0  0  0  0  0
   -1.1946    0.4642    0.0000 C   0  0  0  0  0  0  0  0  0  0  0  0
    0.1413   -0.2180    0.0000 C   0  0  0  0  0  0  0  0  0  0  0  0
    1.4001    0.5978    0.0000 O   0  0  0  0  0  0  0  0  0  0  0  0
    2.7359   -0.0845    0.0000 C   0  0  0  0  0  0  0  0  0  0  0  0
    2.8131   -1.5825    0.0000 O   0  0  0  0  0  0  0  0  0  0  0  0
    3.9947    0.7313    0.0000 C   0  0  0  0  0  0  0  0  0  0  0  0
   -2.4533   -0.3516    0.0000 C   0  0  0  0  0  0  0  0  0  0  0  0
   -2.3762   -1.8496    0.0000 O   0  0  0  0  0  0  0  0  0  0  0  0
   -3.7892    0.3306    0.0000 O   0  0  0  0  0  0  0  0  0  0  0  0
  2  1  1  6
  2  3  1  0
  3  4  1  0
  4  5  1  0
  5  6  2  0
  5  7  1  0
  2  8  1  0
  8  9  2  0
  8 10  1  0
M  END
>  <rName>  (606) 
D-Ser_Ac

>  <PQ_SYMBOL>  (606) 
D-Ser_Ac

>  <FULL_NAME>  (606) 
O-Acetyl-D-Serine

>  <IUPAC_CONDENSED>  (606) 
D-Ser(Ac)

>  <IUPAC>  (606) 
(2R)-2-amino-3-(acetoxy)propanoic acid

>  <TYPE>  (606) 
Backbone

>  <CLASS>  (606) 
alpha

>  <ANALOG>  (606) 
Ser

>  <MOL_WT>  (606) 
147.13

>  <LOGP>  (606) 
-1.0385999999999997

>  <TPSA>  (606) 
89.62

>  <POPULARITY>  (606) 
6.9

>  <PROTECTED>  (606) 
TRUE

>  <SMILES>  (606) 
N[C@H](COC(=O)C)C(=O)O

>  <INCHIKEY>  (606) 
VZXPDPZARILFQX-SCSAIBSYSA-N

$$$$
D-Met_O2
     RDKit          2D

 11 10  0  0  0  0  0  0  0  0999 V2000
    1.5275   -1.9644    0.0000 N   0  0  0  0  0  0  0  0  0  0  0  0
    1.4450   -0.4666    0.0000 C   0  0  0  0  0  0  0  0  0  0  0  0
    0.1067    0.2107    0.0000 C   0  0  0  0  0  0  0  0  0  0  0  0
   -1.1491   -0.6096    0.0000 C   0  0  0  0  0  0  0  0  0  0  0  0
   -2.4875    0.0678    0.0000 S   0  0  0  0  0  0  0  0  0  0  0  0
   -3.1649   -1.2706    0.0000 O   0  0  0  0  0  0  0  0  0  0  0  0
   -1.8101    1.4061    0.0000 O   0  0  0  0  0  0  0  0  0  0  0  0
   -3.8258    0.7452    0.0000 C   0  0  0  0  0  0  0  0  0  0  0  0
    2.7008    0.3537    0.0000 C   0  0  0  0  0  0  0  0  0  0  0  0
    2.6183    1.8514    0.0000 O   0  0  0  0  0  0  0  0  0  0  0  0
    4.0391   -0.3237    0.0000 O   0  0  0  0  0  0  0  0  0  0  0  0
  2  1  1  6
  2  3  1  0
  3  4  1  0
  4  5  1  0
  5  6  2  0
  5  7  2  0
  5  8  1  0
  2  9  1  0
  9 10  2  0
  9 11  1  0
M  END
>  <rName>  (607) 
D-Met_O2

>  <PQ_SYMBOL>  (607) 
D-Met_O2

>  <FULL_NAME>  (607) 
D-Methionine Sulfone

>  <IUPAC_CONDENSED>  (607) 
D-Met(O2)

>  <IUPAC>  (607) 
(2R)-2-amino-4-(methylsulfonyl)butanoic acid

>  <TYPE>  (607) 
Backbone

>  <CLASS>  (607) 
alpha

>  <ANALOG>  (607) 
X

>  <MOL_WT>  (607) 
181.213

>  <LOGP>  (607) 
-1.167

>  <TPSA>  (607) 
97.46000000000001

>  <POPULARITY>  (607) 
5.6

>  <PROTECTED>  (607) 
TRUE

>  <SMILES>  (607) 
N[C@H](CCS(=O)(=O)C)C(=O)O

>  <INCHIKEY>  (607) 
UCUNFLYVYCGDHP-SCSAIBSYSA-N

$$$$
D-Nle_carbonyl
     RDKit          2D

 10  9  0  0  0  0  0  0  0  0999 V2000
   -1.2717    1.9622    0.0000 N   0  0  0  0  0  0  0  0  0  0  0  0
   -1.1946    0.4642    0.0000 C   0  0  0  0  0  0  0  0  0  0  0  0
    0.1413   -0.2180    0.0000 C   0  0  0  0  0  0  0  0  0  0  0  0
    1.4001    0.5978    0.0000 C   0  0  0  0  0  0  0  0  0  0  0  0
    2.7359   -0.0845    0.0000 C   0  0  0  0  0  0  0  0  0  0  0  0
    2.8131   -1.5825    0.0000 O   0  0  0  0  0  0  0  0  0  0  0  0
    3.9947    0.7313    0.0000 C   0  0  0  0  0  0  0  0  0  0  0  0
   -2.4533   -0.3516    0.0000 C   0  0  0  0  0  0  0  0  0  0  0  0
   -2.3762   -1.8496    0.0000 O   0  0  0  0  0  0  0  0  0  0  0  0
   -3.7892    0.3306    0.0000 O   0  0  0  0  0  0  0  0  0  0  0  0
  2  1  1  6
  2  3  1  0
  3  4  1  0
  4  5  1  0
  5  6  2  0
  5  7  1  0
  2  8  1  0
  8  9  2  0
  8 10  1  0
M  END
>  <rName>  (608) 
D-Nle_carbonyl

>  <PQ_SYMBOL>  (608) 
D-Nle_carbonyl

>  <FULL_NAME>  (608) 
5-Oxo-D-Norleucine

>  <IUPAC_CONDENSED>  (608) 
D-Nle(carbonyl)

>  <IUPAC>  (608) 
(2R)-2-amino-5-oxohexanoic acid

>  <TYPE>  (608) 
Backbone

>  <CLASS>  (608) 
alpha

>  <ANALOG>  (608) 
X

>  <MOL_WT>  (608) 
145.158

>  <LOGP>  (608) 
-0.23250000000000043

>  <TPSA>  (608) 
80.39

>  <POPULARITY>  (608) 
7.4

>  <PROTECTED>  (608) 
TRUE

>  <SMILES>  (608) 
N[C@H](CCC(=O)C)C(=O)O

>  <INCHIKEY>  (608) 
KSIJECNNZVKMJG-RXMQYKEDSA-N

$$$$
D-Orn
     RDKit          2D

  9  8  0  0  0  0  0  0  0  0999 V2000
   -0.7616    1.8791    0.0000 N   0  0  0  0  0  0  0  0  0  0  0  0
   -0.8459    0.3815    0.0000 C   0  0  0  0  0  0  0  0  0  0  0  0
    0.4089   -0.4403    0.0000 C   0  0  0  0  0  0  0  0  0  0  0  0
    1.7480    0.2354    0.0000 C   0  0  0  0  0  0  0  0  0  0  0  0
    3.0029   -0.5864    0.0000 C   0  0  0  0  0  0  0  0  0  0  0  0
    4.3420    0.0894    0.0000 N   0  0  0  0  0  0  0  0  0  0  0  0
   -2.1851   -0.2943    0.0000 C   0  0  0  0  0  0  0  0  0  0  0  0
   -2.2694   -1.7919    0.0000 O   0  0  0  0  0  0  0  0  0  0  0  0
   -3.4399    0.5275    0.0000 O   0  0  0  0  0  0  0  0  0  0  0  0
  2  1  1  6
  2  3  1  0
  3  4  1  0
  4  5  1  0
  5  6  1  0
  2  7  1  0
  7  8  2  0
  7  9  1  0
M  END
>  <rName>  (609) 
D-Orn

>  <PQ_SYMBOL>  (609) 
D-Orn

>  <FULL_NAME>  (609) 
D-Ornithine

>  <IUPAC_CONDENSED>  (609) 
D-Orn

>  <IUPAC>  (609) 
(2R)-2,5-diaminopentanoic acid

>  <TYPE>  (609) 
Backbone

>  <CLASS>  (609) 
alpha

>  <ANALOG>  (609) 
Lys

>  <MOL_WT>  (609) 
132.163

>  <LOGP>  (609) 
-0.8628

>  <TPSA>  (609) 
89.34

>  <POPULARITY>  (609) 
39.1

>  <PROTECTED>  (609) 
TRUE

>  <SMILES>  (609) 
N[C@H](CCCN)C(=O)O

>  <INCHIKEY>  (609) 
AHLPHDHHMVZTML-SCSAIBSYSA-N

$$$$
D-Bpa
     RDKit          2D

 20 21  0  0  0  0  0  0  0  0999 V2000
   -4.1652    1.5275    0.0000 N   0  0  0  0  0  0  0  0  0  0  0  0
   -4.3980    0.0457    0.0000 C   0  0  0  0  0  0  0  0  0  0  0  0
   -3.2311   -0.8968    0.0000 C   0  0  0  0  0  0  0  0  0  0  0  0
   -1.8314   -0.3576    0.0000 C   0  0  0  0  0  0  0  0  0  0  0  0
   -1.5986    1.1243    0.0000 C   0  0  0  0  0  0  0  0  0  0  0  0
   -0.1989    1.6635    0.0000 C   0  0  0  0  0  0  0  0  0  0  0  0
    0.9680    0.7210    0.0000 C   0  0  0  0  0  0  0  0  0  0  0  0
    0.7352   -0.7608    0.0000 C   0  0  0  0  0  0  0  0  0  0  0  0
   -0.6645   -1.3001    0.0000 C   0  0  0  0  0  0  0  0  0  0  0  0
    2.3677    1.2603    0.0000 C   0  0  0  0  0  0  0  0  0  0  0  0
    2.6006    2.7421    0.0000 O   0  0  0  0  0  0  0  0  0  0  0  0
    3.5346    0.3177    0.0000 C   0  0  0  0  0  0  0  0  0  0  0  0
    3.3018   -1.1641    0.0000 C   0  0  0  0  0  0  0  0  0  0  0  0
    4.4687   -2.1067    0.0000 C   0  0  0  0  0  0  0  0  0  0  0  0
    5.8684   -1.5674    0.0000 C   0  0  0  0  0  0  0  0  0  0  0  0
    6.1012   -0.0856    0.0000 C   0  0  0  0  0  0  0  0  0  0  0  0
    4.9343    0.8570    0.0000 C   0  0  0  0  0  0  0  0  0  0  0  0
   -5.7977   -0.4936    0.0000 C   0  0  0  0  0  0  0  0  0  0  0  0
   -6.0305   -1.9754    0.0000 O   0  0  0  0  0  0  0  0  0  0  0  0
   -6.9646    0.4490    0.0000 O   0  0  0  0  0  0  0  0  0  0  0  0
  2  1  1  6
  2  3  1  0
  3  4  1  0
  4  5  1  0
  5  6  2  0
  6  7  1  0
  7  8  2  0
  8  9  1  0
  7 10  1  0
 10 11  2  0
 10 12  1  0
 12 13  2  0
 13 14  1  0
 14 15  2  0
 15 16  1  0
 16 17  2  0
  2 18  1  0
 18 19  2  0
 18 20  1  0
  9  4  2  0
 17 12  1  0
M  END
>  <rName>  (610) 
D-Bpa

>  <PQ_SYMBOL>  (610) 
D-Bpa

>  <FULL_NAME>  (610) 
4-Benzoyl-D-Phenylalanine

>  <IUPAC_CONDENSED>  (610) 
D-Bpa

>  <IUPAC>  (610) 
(2R)-2-amino-3-(4-((phenyl)carbonyl)phenyl)propanoic acid

>  <TYPE>  (610) 
Backbone

>  <CLASS>  (610) 
alpha

>  <ANALOG>  (610) 
Phe

>  <MOL_WT>  (610) 
269.29999999999995

>  <LOGP>  (610) 
1.872

>  <TPSA>  (610) 
80.39

>  <POPULARITY>  (610) 
20.5

>  <PROTECTED>  (610) 
TRUE

>  <SMILES>  (610) 
N[C@H](Cc1(ccc(cc1)C(=O)c2(ccccc2)))C(=O)O

>  <INCHIKEY>  (610) 
TVIDEEHSOPHZBR-CQSZACIVSA-N

$$$$
D-Phe_4NO2
     RDKit          2D

 15 15  0  0  0  0  0  0  0  0999 V2000
   -2.2547    1.6872    0.0000 N   0  0  0  0  0  0  0  0  0  0  0  0
   -2.7489    0.2709    0.0000 C   0  0  0  0  0  0  0  0  0  0  0  0
   -1.7696   -0.8652    0.0000 C   0  0  0  0  0  0  0  0  0  0  0  0
   -0.2959   -0.5852    0.0000 C   0  0  0  0  0  0  0  0  0  0  0  0
    0.1983    0.8311    0.0000 C   0  0  0  0  0  0  0  0  0  0  0  0
    1.6719    1.1111    0.0000 C   0  0  0  0  0  0  0  0  0  0  0  0
    2.6513   -0.0250    0.0000 C   0  0  0  0  0  0  0  0  0  0  0  0
    2.1570   -1.4413    0.0000 C   0  0  0  0  0  0  0  0  0  0  0  0
    0.6834   -1.7213    0.0000 C   0  0  0  0  0  0  0  0  0  0  0  0
    4.1249    0.2550    0.0000 N   0  0  0  0  0  0  0  0  0  0  0  0
    4.6192    1.6713    0.0000 O   0  0  0  0  0  0  0  0  0  0  0  0
    5.1043   -0.8811    0.0000 O   0  0  0  0  0  0  0  0  0  0  0  0
   -4.2225   -0.0091    0.0000 C   0  0  0  0  0  0  0  0  0  0  0  0
   -4.7168   -1.4254    0.0000 O   0  0  0  0  0  0  0  0  0  0  0  0
   -5.2019    1.1270    0.0000 O   0  0  0  0  0  0  0  0  0  0  0  0
  2  1  1  6
  2  3  1  0
  3  4  1  0
  4  5  1  0
  5  6  2  0
  6  7  1  0
  7  8  2  0
  8  9  1  0
  7 10  1  0
 10 11  2  0
 10 12  1  0
  2 13  1  0
 13 14  2  0
 13 15  1  0
  9  4  2  0
M  CHG  2  10   1  12  -1
M  END
>  <rName>  (611) 
D-Phe_4NO2

>  <PQ_SYMBOL>  (611) 
D-Phe_4NO2

>  <FULL_NAME>  (611) 
4-Nitro-D-Phenylalanine

>  <IUPAC_CONDENSED>  (611) 
D-Phe(4-NO2)

>  <IUPAC>  (611) 
(2R)-2-amino-3-(4-nitrophenyl)propanoic acid

>  <TYPE>  (611) 
Backbone

>  <CLASS>  (611) 
alpha

>  <ANALOG>  (611) 
Phe

>  <MOL_WT>  (611) 
210.18899999999994

>  <LOGP>  (611) 
0.5492000000000001

>  <TPSA>  (611) 
106.46

>  <POPULARITY>  (611) 
16.1

>  <PROTECTED>  (611) 
TRUE

>  <SMILES>  (611) 
N[C@H](Cc1(ccc(cc1)[N+](=O)[O-]))C(=O)O

>  <INCHIKEY>  (611) 
GTVVZTAFGPQSPC-MRVPVSSYSA-N

$$$$
D-Tyr_PO3H2
     RDKit          2D

 17 17  0  0  0  0  0  0  0  0999 V2000
   -3.1457    1.6694    0.0000 N   0  0  0  0  0  0  0  0  0  0  0  0
   -3.4800    0.2071    0.0000 C   0  0  0  0  0  0  0  0  0  0  0  0
   -2.3807   -0.8135    0.0000 C   0  0  0  0  0  0  0  0  0  0  0  0
   -0.9472   -0.3718    0.0000 C   0  0  0  0  0  0  0  0  0  0  0  0
   -0.6130    1.0905    0.0000 C   0  0  0  0  0  0  0  0  0  0  0  0
    0.8205    1.5322    0.0000 C   0  0  0  0  0  0  0  0  0  0  0  0
    1.9198    0.5116    0.0000 C   0  0  0  0  0  0  0  0  0  0  0  0
    3.3533    0.9532    0.0000 O   0  0  0  0  0  0  0  0  0  0  0  0
    4.4525   -0.0674    0.0000 P   0  0  0  0  0  0  0  0  0  0  0  0
    5.4731    1.0319    0.0000 O   0  0  0  0  0  0  0  0  0  0  0  0
    3.4319   -1.1666    0.0000 O   0  0  0  0  0  0  0  0  0  0  0  0
    5.5518   -1.0880    0.0000 O   0  0  0  0  0  0  0  0  0  0  0  0
    1.5855   -0.9507    0.0000 C   0  0  0  0  0  0  0  0  0  0  0  0
    0.1520   -1.3924    0.0000 C   0  0  0  0  0  0  0  0  0  0  0  0
   -4.9135   -0.2346    0.0000 C   0  0  0  0  0  0  0  0  0  0  0  0
   -5.2477   -1.6969    0.0000 O   0  0  0  0  0  0  0  0  0  0  0  0
   -6.0127    0.7860    0.0000 O   0  0  0  0  0  0  0  0  0  0  0  0
  2  1  1  6
  2  3  1  0
  3  4  1  0
  4  5  1  0
  5  6  2  0
  6  7  1  0
  7  8  1  0
  8  9  1  0
  9 10  2  0
  9 11  1  0
  9 12  1  0
  7 13  2  0
 13 14  1  0
  2 15  1  0
 15 16  2  0
 15 17  1  0
 14  4  2  0
M  END
>  <rName>  (612) 
D-Tyr_PO3H2

>  <PQ_SYMBOL>  (612) 
D-Tyr_PO3H2

>  <FULL_NAME>  (612) 
O-Phospho-D-Tyrosine

>  <IUPAC_CONDENSED>  (612) 
D-Tyr(PO3H2)

>  <IUPAC>  (612) 
4-((2R)-2-amino-3-hydroxy-3-oxopropyl)phenyl dihydrogen phosphate

>  <TYPE>  (612) 
Backbone

>  <CLASS>  (612) 
alpha

>  <ANALOG>  (612) 
Tyr

>  <MOL_WT>  (612) 
261.16999999999996

>  <LOGP>  (612) 
0.1125000000000001

>  <TPSA>  (612) 
130.07999999999998

>  <POPULARITY>  (612) 
16.4

>  <PROTECTED>  (612) 
TRUE

>  <SMILES>  (612) 
N[C@H](Cc1(ccc(OP(=O)(O)O)cc1))C(=O)O

>  <INCHIKEY>  (612) 
DCWXELXMIBXGTH-MRVPVSSYSA-N

$$$$
D-Ala_pyrazol1yl
     RDKit          2D

 11 11  0  0  0  0  0  0  0  0999 V2000
   -0.9461    1.6947    0.0000 N   0  0  0  0  0  0  0  0  0  0  0  0
   -1.3100    0.2395    0.0000 C   0  0  0  0  0  0  0  0  0  0  0  0
   -0.2317   -0.8032    0.0000 C   0  0  0  0  0  0  0  0  0  0  0  0
    1.2105   -0.3908    0.0000 N   0  0  0  0  0  0  0  0  0  0  0  0
    2.3919   -1.3151    0.0000 C   0  0  0  0  0  0  0  0  0  0  0  0
    3.6360   -0.4772    0.0000 C   0  0  0  0  0  0  0  0  0  0  0  0
    3.2236    0.9650    0.0000 C   0  0  0  0  0  0  0  0  0  0  0  0
    1.7245    1.0184    0.0000 N   0  0  0  0  0  0  0  0  0  0  0  0
   -2.7522   -0.1729    0.0000 C   0  0  0  0  0  0  0  0  0  0  0  0
   -3.1161   -1.6281    0.0000 O   0  0  0  0  0  0  0  0  0  0  0  0
   -3.8304    0.8698    0.0000 O   0  0  0  0  0  0  0  0  0  0  0  0
  2  1  1  6
  2  3  1  0
  3  4  1  0
  4  5  1  0
  5  6  2  0
  6  7  1  0
  7  8  2  0
  2  9  1  0
  9 10  2  0
  9 11  1  0
  8  4  1  0
M  END
>  <rName>  (613) 
D-Ala_pyrazol1yl

>  <PQ_SYMBOL>  (613) 
D-Ala_pyrazol1yl

>  <FULL_NAME>  (613) 
3-(1H-Pyrazole-1-yl)-D-Alanine

>  <IUPAC_CONDENSED>  (613) 
D-Ala(pyrazol-1-yl)

>  <IUPAC>  (613) 
(2R)-2-amino-3-(1H-pyrazol-1-yl)propanoic acid

>  <TYPE>  (613) 
Backbone

>  <CLASS>  (613) 
alpha

>  <ANALOG>  (613) 
Phe

>  <MOL_WT>  (613) 
155.15699999999998

>  <LOGP>  (613) 
-0.7050000000000005

>  <TPSA>  (613) 
81.14

>  <POPULARITY>  (613) 
5.1

>  <PROTECTED>  (613) 
TRUE

>  <SMILES>  (613) 
N[C@H](Cn1(cccn1))C(=O)O

>  <INCHIKEY>  (613) 
PIGOPELHGLPKLL-RXMQYKEDSA-N

$$$$
D-Ala_quinolin2yl
     RDKit          2D

 16 17  0  0  0  0  0  0  0  0999 V2000
   -2.0722    1.6358    0.0000 N   0  0  0  0  0  0  0  0  0  0  0  0
   -2.7778    0.3121    0.0000 C   0  0  0  0  0  0  0  0  0  0  0  0
   -1.9842   -0.9608    0.0000 C   0  0  0  0  0  0  0  0  0  0  0  0
   -0.4851   -0.9100    0.0000 C   0  0  0  0  0  0  0  0  0  0  0  0
    0.3084   -2.1829    0.0000 C   0  0  0  0  0  0  0  0  0  0  0  0
    1.8076   -2.1322    0.0000 C   0  0  0  0  0  0  0  0  0  0  0  0
    2.5132   -0.8085    0.0000 C   0  0  0  0  0  0  0  0  0  0  0  0
    4.0123   -0.7577    0.0000 C   0  0  0  0  0  0  0  0  0  0  0  0
    4.7179    0.5659    0.0000 C   0  0  0  0  0  0  0  0  0  0  0  0
    3.9244    1.8388    0.0000 C   0  0  0  0  0  0  0  0  0  0  0  0
    2.4253    1.7881    0.0000 C   0  0  0  0  0  0  0  0  0  0  0  0
    1.7196    0.4644    0.0000 C   0  0  0  0  0  0  0  0  0  0  0  0
    0.2205    0.4136    0.0000 N   0  0  0  0  0  0  0  0  0  0  0  0
   -4.2769    0.2614    0.0000 C   0  0  0  0  0  0  0  0  0  0  0  0
   -4.9825   -1.0623    0.0000 O   0  0  0  0  0  0  0  0  0  0  0  0
   -5.0704    1.5343    0.0000 O   0  0  0  0  0  0  0  0  0  0  0  0
  2  1  1  6
  2  3  1  0
  3  4  1  0
  4  5  1  0
  5  6  2  0
  6  7  1  0
  7  8  2  0
  8  9  1  0
  9 10  2  0
 10 11  1  0
 11 12  2  0
 12 13  1  0
  2 14  1  0
 14 15  2  0
 14 16  1  0
 12  7  1  0
 13  4  2  0
M  END
>  <rName>  (614) 
D-Ala_quinolin2yl

>  <PQ_SYMBOL>  (614) 
D-Ala_quinolin2yl

>  <FULL_NAME>  (614) 
(R)-2-(2-Quinolinylmethyl)glycine

>  <IUPAC_CONDENSED>  (614) 
D-Ala(quinolin-2-yl)

>  <IUPAC>  (614) 
(2R)-2-amino-3-(2-azabicyclo[4.4.0]deca-1,3,5,7,9-pentaen-3-yl)propanoic acid

>  <TYPE>  (614) 
Backbone

>  <CLASS>  (614) 
alpha

>  <ANALOG>  (614) 
Phe

>  <MOL_WT>  (614) 
216.23999999999998

>  <LOGP>  (614) 
1.1892

>  <TPSA>  (614) 
76.21

>  <POPULARITY>  (614) 
7.2

>  <PROTECTED>  (614) 
TRUE

>  <SMILES>  (614) 
N[C@H](Cc2(ccc1(ccccc1n2)))C(=O)O

>  <INCHIKEY>  (614) 
CRSSRGSNAKKNNI-SNVBAGLBSA-N

$$$$
D-Ser_PO3H2
     RDKit          2D

 11 10  0  0  0  0  0  0  0  0999 V2000
    1.5275    1.9644    0.0000 N   0  0  0  0  0  0  0  0  0  0  0  0
    1.4450    0.4666    0.0000 C   0  0  0  0  0  0  0  0  0  0  0  0
    0.1067   -0.2107    0.0000 C   0  0  0  0  0  0  0  0  0  0  0  0
   -1.1491    0.6096    0.0000 O   0  0  0  0  0  0  0  0  0  0  0  0
   -2.4875   -0.0678    0.0000 P   0  0  0  0  0  0  0  0  0  0  0  0
   -3.1649    1.2706    0.0000 O   0  0  0  0  0  0  0  0  0  0  0  0
   -1.8101   -1.4061    0.0000 O   0  0  0  0  0  0  0  0  0  0  0  0
   -3.8258   -0.7452    0.0000 O   0  0  0  0  0  0  0  0  0  0  0  0
    2.7008   -0.3537    0.0000 C   0  0  0  0  0  0  0  0  0  0  0  0
    2.6183   -1.8514    0.0000 O   0  0  0  0  0  0  0  0  0  0  0  0
    4.0391    0.3237    0.0000 O   0  0  0  0  0  0  0  0  0  0  0  0
  2  1  1  1
  2  3  1  0
  3  4  1  0
  4  5  1  0
  5  6  2  0
  5  7  1  0
  5  8  1  0
  2  9  1  0
  9 10  2  0
  9 11  1  0
M  END
>  <rName>  (615) 
D-Ser_PO3H2

>  <PQ_SYMBOL>  (615) 
D-Ser_PO3H2

>  <FULL_NAME>  (615) 
O-Phospho-D-Serine

>  <IUPAC_CONDENSED>  (615) 
D-Ser(PO3H2)

>  <IUPAC>  (615) 
(2R)-2-amino-3-hydroxy-3-oxopropyl dihydrogen phosphate

>  <TYPE>  (615) 
Backbone

>  <CLASS>  (615) 
alpha

>  <ANALOG>  (615) 
Ser

>  <MOL_WT>  (615) 
185.072

>  <LOGP>  (615) 
-1.4924000000000002

>  <TPSA>  (615) 
130.07999999999998

>  <POPULARITY>  (615) 
11.2

>  <PROTECTED>  (615) 
TRUE

>  <SMILES>  (615) 
N[C@H](COP(=O)(O)O)C(=O)O

>  <INCHIKEY>  (615) 
BZQFBWGGLXLEPQ-UWTATZPHSA-N

$$$$
D-Abu_Bn
     RDKit          2D

 14 14  0  0  0  0  0  0  0  0999 V2000
   -2.7125    1.8435    0.0000 N   0  0  0  0  0  0  0  0  0  0  0  0
   -2.9490    0.3623    0.0000 C   0  0  0  0  0  0  0  0  0  0  0  0
   -1.7844   -0.5831    0.0000 C   0  0  0  0  0  0  0  0  0  0  0  0
   -0.3834   -0.0473    0.0000 C   0  0  0  0  0  0  0  0  0  0  0  0
    0.7812   -0.9927    0.0000 C   0  0  0  0  0  0  0  0  0  0  0  0
    2.1822   -0.4569    0.0000 C   0  0  0  0  0  0  0  0  0  0  0  0
    2.4187    1.0244    0.0000 C   0  0  0  0  0  0  0  0  0  0  0  0
    3.8197    1.5602    0.0000 C   0  0  0  0  0  0  0  0  0  0  0  0
    4.9842    0.6148    0.0000 C   0  0  0  0  0  0  0  0  0  0  0  0
    4.7478   -0.8664    0.0000 C   0  0  0  0  0  0  0  0  0  0  0  0
    3.3467   -1.4023    0.0000 C   0  0  0  0  0  0  0  0  0  0  0  0
   -4.3500   -0.1735    0.0000 C   0  0  0  0  0  0  0  0  0  0  0  0
   -4.5865   -1.6548    0.0000 O   0  0  0  0  0  0  0  0  0  0  0  0
   -5.5146    0.7719    0.0000 O   0  0  0  0  0  0  0  0  0  0  0  0
  2  1  1  6
  2  3  1  0
  3  4  1  0
  4  5  2  3
  5  6  1  0
  6  7  2  0
  7  8  1  0
  8  9  2  0
  9 10  1  0
 10 11  2  0
  2 12  1  0
 12 13  2  0
 12 14  1  0
 11  6  1  0
M  END
>  <rName>  (616) 
D-Abu_Bn

>  <PQ_SYMBOL>  (616) 
D-Abu_Bn

>  <FULL_NAME>  (616) 
3-Styryl-D-Alanine

>  <IUPAC_CONDENSED>  (616) 
D-Abu(Bn)

>  <IUPAC>  (616) 
(2R)-2-amino-5-phenylpent-4-enoic acid

>  <TYPE>  (616) 
Backbone

>  <CLASS>  (616) 
alpha

>  <ANALOG>  (616) 
X

>  <MOL_WT>  (616) 
191.23

>  <LOGP>  (616) 
1.5018

>  <TPSA>  (616) 
63.32000000000001

>  <POPULARITY>  (616) 
7.2

>  <PROTECTED>  (616) 
TRUE

>  <SMILES>  (616) 
N[C@H](CC=Cc1(ccccc1))C(=O)O

>  <INCHIKEY>  (616) 
MCGSKGBMVBECNS-SNVBAGLBSA-N

$$$$
D-Ala_benzothiophen3yl
     RDKit          2D

 15 16  0  0  0  0  0  0  0  0999 V2000
   -2.6183   -1.7023    0.0000 N   0  0  0  0  0  0  0  0  0  0  0  0
   -2.5622   -0.2034    0.0000 C   0  0  0  0  0  0  0  0  0  0  0  0
   -1.2360    0.4975    0.0000 C   0  0  0  0  0  0  0  0  0  0  0  0
    0.0341   -0.3006    0.0000 C   0  0  0  0  0  0  0  0  0  0  0  0
    0.1349   -1.7972    0.0000 C   0  0  0  0  0  0  0  0  0  0  0  0
    1.5895   -2.1637    0.0000 S   0  0  0  0  0  0  0  0  0  0  0  0
    2.3875   -0.8937    0.0000 C   0  0  0  0  0  0  0  0  0  0  0  0
    3.8654   -0.6369    0.0000 C   0  0  0  0  0  0  0  0  0  0  0  0
    4.3820    0.7713    0.0000 C   0  0  0  0  0  0  0  0  0  0  0  0
    3.4207    1.9228    0.0000 C   0  0  0  0  0  0  0  0  0  0  0  0
    1.9429    1.6661    0.0000 C   0  0  0  0  0  0  0  0  0  0  0  0
    1.4263    0.2578    0.0000 C   0  0  0  0  0  0  0  0  0  0  0  0
   -3.8322    0.5947    0.0000 C   0  0  0  0  0  0  0  0  0  0  0  0
   -3.7761    2.0937    0.0000 O   0  0  0  0  0  0  0  0  0  0  0  0
   -5.1584   -0.1061    0.0000 O   0  0  0  0  0  0  0  0  0  0  0  0
  2  1  1  1
  2  3  1  0
  3  4  1  0
  4  5  2  0
  5  6  1  0
  6  7  1  0
  7  8  2  0
  8  9  1  0
  9 10  2  0
 10 11  1  0
 11 12  2  0
  2 13  1  0
 13 14  2  0
 13 15  1  0
 12  4  1  0
 12  7  1  0
M  END
>  <rName>  (617) 
D-Ala_benzothiophen3yl

>  <PQ_SYMBOL>  (617) 
D-Ala_benzothiophen3yl

>  <FULL_NAME>  (617) 
3-(3-Benzothienyl)-D-Alanine

>  <IUPAC_CONDENSED>  (617) 
D-Ala(benzothiophen-3-yl)

>  <IUPAC>  (617) 
(2R)-2-amino-3-(1-benzothiophen-3-yl)propanoic acid

>  <TYPE>  (617) 
Backbone

>  <CLASS>  (617) 
alpha

>  <ANALOG>  (617) 
Phe

>  <MOL_WT>  (617) 
221.281

>  <LOGP>  (617) 
1.8557000000000001

>  <TPSA>  (617) 
63.32000000000001

>  <POPULARITY>  (617) 
15.2

>  <PROTECTED>  (617) 
TRUE

>  <SMILES>  (617) 
N[C@H](Cc1(csc2(ccccc12)))C(=O)O

>  <INCHIKEY>  (617) 
GAUUPDQWKHTCAX-SECBINFHSA-N

$$$$
D-2Thi
     RDKit          2D

 11 11  0  0  0  0  0  0  0  0999 V2000
   -0.9461    1.6947    0.0000 N   0  0  0  0  0  0  0  0  0  0  0  0
   -1.3100    0.2395    0.0000 C   0  0  0  0  0  0  0  0  0  0  0  0
   -0.2317   -0.8032    0.0000 C   0  0  0  0  0  0  0  0  0  0  0  0
    1.2105   -0.3908    0.0000 C   0  0  0  0  0  0  0  0  0  0  0  0
    2.3919   -1.3151    0.0000 C   0  0  0  0  0  0  0  0  0  0  0  0
    3.6360   -0.4772    0.0000 C   0  0  0  0  0  0  0  0  0  0  0  0
    3.2236    0.9650    0.0000 C   0  0  0  0  0  0  0  0  0  0  0  0
    1.7245    1.0184    0.0000 S   0  0  0  0  0  0  0  0  0  0  0  0
   -2.7522   -0.1729    0.0000 C   0  0  0  0  0  0  0  0  0  0  0  0
   -3.1161   -1.6281    0.0000 O   0  0  0  0  0  0  0  0  0  0  0  0
   -3.8304    0.8698    0.0000 O   0  0  0  0  0  0  0  0  0  0  0  0
  2  1  1  6
  2  3  1  0
  3  4  1  0
  4  5  2  0
  5  6  1  0
  6  7  2  0
  7  8  1  0
  2  9  1  0
  9 10  2  0
  9 11  1  0
  8  4  1  0
M  END
>  <rName>  (618) 
D-2Thi

>  <PQ_SYMBOL>  (618) 
D-2Thi

>  <FULL_NAME>  (618) 
3-(2-Thienyl)-D-Alanine

>  <IUPAC_CONDENSED>  (618) 
D-2Thi

>  <IUPAC>  (618) 
(2R)-2-amino-3-(thiophen-2-yl)propanoic acid

>  <TYPE>  (618) 
Backbone

>  <CLASS>  (618) 
alpha

>  <ANALOG>  (618) 
Phe

>  <MOL_WT>  (618) 
171.22099999999998

>  <LOGP>  (618) 
0.7025000000000001

>  <TPSA>  (618) 
63.32000000000001

>  <POPULARITY>  (618) 
12.6

>  <PROTECTED>  (618) 
TRUE

>  <SMILES>  (618) 
N[C@H](Cc1(cccs1))C(=O)O

>  <INCHIKEY>  (618) 
WTOFYLAWDLQMBZ-ZCFIWIBFSA-N

$$$$
D-Aad
     RDKit          2D

 11 10  0  0  0  0  0  0  0  0999 V2000
   -1.6269    1.8430    0.0000 N   0  0  0  0  0  0  0  0  0  0  0  0
   -1.7489    0.3480    0.0000 C   0  0  0  0  0  0  0  0  0  0  0  0
   -0.5152   -0.5052    0.0000 C   0  0  0  0  0  0  0  0  0  0  0  0
    0.8406    0.1366    0.0000 C   0  0  0  0  0  0  0  0  0  0  0  0
    2.0743   -0.7166    0.0000 C   0  0  0  0  0  0  0  0  0  0  0  0
    3.4300   -0.0748    0.0000 C   0  0  0  0  0  0  0  0  0  0  0  0
    3.5521    1.4203    0.0000 O   0  0  0  0  0  0  0  0  0  0  0  0
    4.6637   -0.9280    0.0000 O   0  0  0  0  0  0  0  0  0  0  0  0
   -3.1047   -0.2938    0.0000 C   0  0  0  0  0  0  0  0  0  0  0  0
   -3.2267   -1.7889    0.0000 O   0  0  0  0  0  0  0  0  0  0  0  0
   -4.3384    0.5594    0.0000 O   0  0  0  0  0  0  0  0  0  0  0  0
  2  1  1  6
  2  3  1  0
  3  4  1  0
  4  5  1  0
  5  6  1  0
  6  7  2  0
  6  8  1  0
  2  9  1  0
  9 10  2  0
  9 11  1  0
M  END
>  <rName>  (619) 
D-Aad

>  <PQ_SYMBOL>  (619) 
D-Aad

>  <FULL_NAME>  (619) 
D-2-Aminoadipic acid

>  <IUPAC_CONDENSED>  (619) 
D-Aad

>  <IUPAC>  (619) 
(2R)-2-aminohexanedioic acid

>  <TYPE>  (619) 
Backbone

>  <CLASS>  (619) 
alpha

>  <ANALOG>  (619) 
X

>  <MOL_WT>  (619) 
161.15699999999998

>  <LOGP>  (619) 
-0.3468000000000003

>  <TPSA>  (619) 
100.62000000000002

>  <POPULARITY>  (619) 
12.1

>  <PROTECTED>  (619) 
TRUE

>  <SMILES>  (619) 
N[C@H](CCCC(=O)O)C(=O)O

>  <INCHIKEY>  (619) 
OYIFNHCXNCRBQI-SCSAIBSYSA-N

$$$$
D-2Pal
     RDKit          2D

 12 12  0  0  0  0  0  0  0  0999 V2000
   -1.2391    1.6805    0.0000 N   0  0  0  0  0  0  0  0  0  0  0  0
   -1.6184    0.2292    0.0000 C   0  0  0  0  0  0  0  0  0  0  0  0
   -0.5513   -0.8249    0.0000 C   0  0  0  0  0  0  0  0  0  0  0  0
    0.8952   -0.4278    0.0000 C   0  0  0  0  0  0  0  0  0  0  0  0
    1.2745    1.0235    0.0000 C   0  0  0  0  0  0  0  0  0  0  0  0
    2.7210    1.4206    0.0000 C   0  0  0  0  0  0  0  0  0  0  0  0
    3.7882    0.3665    0.0000 C   0  0  0  0  0  0  0  0  0  0  0  0
    3.4088   -1.0848    0.0000 C   0  0  0  0  0  0  0  0  0  0  0  0
    1.9624   -1.4819    0.0000 N   0  0  0  0  0  0  0  0  0  0  0  0
   -3.0649   -0.1679    0.0000 C   0  0  0  0  0  0  0  0  0  0  0  0
   -3.4442   -1.6191    0.0000 O   0  0  0  0  0  0  0  0  0  0  0  0
   -4.1321    0.8862    0.0000 O   0  0  0  0  0  0  0  0  0  0  0  0
  2  1  1  6
  2  3  1  0
  3  4  1  0
  4  5  2  0
  5  6  1  0
  6  7  2  0
  7  8  1  0
  8  9  2  0
  2 10  1  0
 10 11  2  0
 10 12  1  0
  9  4  1  0
M  END
>  <rName>  (620) 
D-2Pal

>  <PQ_SYMBOL>  (620) 
D-2Pal

>  <FULL_NAME>  (620) 
3-(2-Pyridyl)-D-Alanine

>  <IUPAC_CONDENSED>  (620) 
D-2Pal

>  <IUPAC>  (620) 
(2R)-2-amino-3-(pyridin-2-yl)propanoic acid

>  <TYPE>  (620) 
Backbone

>  <CLASS>  (620) 
alpha

>  <ANALOG>  (620) 
Phe

>  <MOL_WT>  (620) 
166.17999999999998

>  <LOGP>  (620) 
0.035999999999999754

>  <TPSA>  (620) 
76.21

>  <POPULARITY>  (620) 
18

>  <PROTECTED>  (620) 
TRUE

>  <SMILES>  (620) 
N[C@H](Cc1(ccccn1))C(=O)O

>  <INCHIKEY>  (620) 
PDRJLZDUOULRHE-SSDOTTSWSA-N

$$$$
D-3Pal
     RDKit          2D

 12 12  0  0  0  0  0  0  0  0999 V2000
   -1.2391    1.6805    0.0000 N   0  0  0  0  0  0  0  0  0  0  0  0
   -1.6184    0.2292    0.0000 C   0  0  0  0  0  0  0  0  0  0  0  0
   -0.5513   -0.8249    0.0000 C   0  0  0  0  0  0  0  0  0  0  0  0
    0.8952   -0.4278    0.0000 C   0  0  0  0  0  0  0  0  0  0  0  0
    1.2745    1.0235    0.0000 C   0  0  0  0  0  0  0  0  0  0  0  0
    2.7210    1.4206    0.0000 C   0  0  0  0  0  0  0  0  0  0  0  0
    3.7882    0.3665    0.0000 C   0  0  0  0  0  0  0  0  0  0  0  0
    3.4088   -1.0848    0.0000 N   0  0  0  0  0  0  0  0  0  0  0  0
    1.9624   -1.4819    0.0000 C   0  0  0  0  0  0  0  0  0  0  0  0
   -3.0649   -0.1679    0.0000 C   0  0  0  0  0  0  0  0  0  0  0  0
   -3.4442   -1.6191    0.0000 O   0  0  0  0  0  0  0  0  0  0  0  0
   -4.1321    0.8862    0.0000 O   0  0  0  0  0  0  0  0  0  0  0  0
  2  1  1  6
  2  3  1  0
  3  4  1  0
  4  5  2  0
  5  6  1  0
  6  7  2  0
  7  8  1  0
  8  9  2  0
  2 10  1  0
 10 11  2  0
 10 12  1  0
  9  4  1  0
M  END
>  <rName>  (621) 
D-3Pal

>  <PQ_SYMBOL>  (621) 
D-3Pal

>  <FULL_NAME>  (621) 
3-(3-Pyridyl)-D-Alanine

>  <IUPAC_CONDENSED>  (621) 
D-3Pal

>  <IUPAC>  (621) 
(2R)-2-amino-3-(pyridin-3-yl)propanoic acid

>  <TYPE>  (621) 
Backbone

>  <CLASS>  (621) 
alpha

>  <ANALOG>  (621) 
Phe

>  <MOL_WT>  (621) 
166.17999999999998

>  <LOGP>  (621) 
0.0360000000000002

>  <TPSA>  (621) 
76.21

>  <POPULARITY>  (621) 
21.3

>  <PROTECTED>  (621) 
TRUE

>  <SMILES>  (621) 
N[C@H](Cc1(cccnc1))C(=O)O

>  <INCHIKEY>  (621) 
DFZVZEMNPGABKO-SSDOTTSWSA-N

$$$$
D-4Pal
     RDKit          2D

 12 12  0  0  0  0  0  0  0  0999 V2000
   -1.2391    1.6805    0.0000 N   0  0  0  0  0  0  0  0  0  0  0  0
   -1.6184    0.2292    0.0000 C   0  0  0  0  0  0  0  0  0  0  0  0
   -0.5513   -0.8249    0.0000 C   0  0  0  0  0  0  0  0  0  0  0  0
    0.8952   -0.4278    0.0000 C   0  0  0  0  0  0  0  0  0  0  0  0
    1.2745    1.0235    0.0000 C   0  0  0  0  0  0  0  0  0  0  0  0
    2.7210    1.4206    0.0000 C   0  0  0  0  0  0  0  0  0  0  0  0
    3.7882    0.3665    0.0000 N   0  0  0  0  0  0  0  0  0  0  0  0
    3.4088   -1.0848    0.0000 C   0  0  0  0  0  0  0  0  0  0  0  0
    1.9624   -1.4819    0.0000 C   0  0  0  0  0  0  0  0  0  0  0  0
   -3.0649   -0.1679    0.0000 C   0  0  0  0  0  0  0  0  0  0  0  0
   -3.4442   -1.6191    0.0000 O   0  0  0  0  0  0  0  0  0  0  0  0
   -4.1321    0.8862    0.0000 O   0  0  0  0  0  0  0  0  0  0  0  0
  2  1  1  6
  2  3  1  0
  3  4  1  0
  4  5  1  0
  5  6  2  0
  6  7  1  0
  7  8  2  0
  8  9  1  0
  2 10  1  0
 10 11  2  0
 10 12  1  0
  9  4  2  0
M  END
>  <rName>  (622) 
D-4Pal

>  <PQ_SYMBOL>  (622) 
D-4Pal

>  <FULL_NAME>  (622) 
3-(4-Pyridyl)-D-Alanine

>  <IUPAC_CONDENSED>  (622) 
D-4Pal

>  <IUPAC>  (622) 
(2R)-2-amino-3-(pyridin-4-yl)propanoic acid

>  <TYPE>  (622) 
Backbone

>  <CLASS>  (622) 
alpha

>  <ANALOG>  (622) 
Phe

>  <MOL_WT>  (622) 
166.17999999999998

>  <LOGP>  (622) 
0.035999999999999754

>  <TPSA>  (622) 
76.21

>  <POPULARITY>  (622) 
13

>  <PROTECTED>  (622) 
TRUE

>  <SMILES>  (622) 
N[C@H](Cc1(ccncc1))C(=O)O

>  <INCHIKEY>  (622) 
FQFVANSXYKWQOT-SSDOTTSWSA-N

$$$$
NMe-M
     RDKit          2D

 10  9  0  0  0  0  0  0  0  0999 V2000
   -2.0182    1.4385    0.0000 N   0  0  0  0  0  0  0  0  0  0  0  0
   -3.4137    0.8883    0.0000 C   0  0  0  0  0  0  0  0  0  0  0  0
   -0.8441    0.5050    0.0000 C   0  0  0  0  0  0  0  0  0  0  0  0
    0.5514    1.0552    0.0000 C   0  0  0  0  0  0  0  0  0  0  0  0
    1.7256    0.1218    0.0000 C   0  0  0  0  0  0  0  0  0  0  0  0
    3.1211    0.6719    0.0000 S   0  0  0  0  0  0  0  0  0  0  0  0
    4.2952   -0.2615    0.0000 C   0  0  0  0  0  0  0  0  0  0  0  0
   -1.0653   -0.9785    0.0000 C   0  0  0  0  0  0  0  0  0  0  0  0
   -2.4608   -1.5287    0.0000 O   0  0  0  0  0  0  0  0  0  0  0  0
    0.1088   -1.9120    0.0000 O   0  0  0  0  0  0  0  0  0  0  0  0
  1  2  1  0
  1  3  1  0
  3  4  1  1
  4  5  1  0
  5  6  1  0
  6  7  1  0
  3  8  1  0
  8  9  2  0
  8 10  1  0
M  END
>  <rName>  (623) 
NMe-M

>  <PQ_SYMBOL>  (623) 
NMe-M

>  <FULL_NAME>  (623) 
N-Methyl-L-Methionine

>  <IUPAC_CONDENSED>  (623) 
Me-Met

>  <IUPAC>  (623) 
(2S)-2-(methylamino)-4-(methylsulfanyl)butanoic acid

>  <TYPE>  (623) 
Backbone

>  <CLASS>  (623) 
alpha

>  <ANALOG>  (623) 
Met

>  <MOL_WT>  (623) 
163.242

>  <LOGP>  (623) 
0.41209999999999986

>  <TPSA>  (623) 
49.33

>  <POPULARITY>  (623) 
30

>  <PROTECTED>  (623) 
TRUE

>  <SMILES>  (623) 
N(C)[C@@H](CCSC)C(=O)O

>  <INCHIKEY>  (623) 
YAXAFCHJCYILRU-YFKPBYRVSA-N

$$$$
hPhe
     RDKit          2D

 13 13  0  0  0  0  0  0  0  0999 V2000
   -2.6715   -1.9340    0.0000 N   0  0  0  0  0  0  0  0  0  0  0  0
   -2.4130   -0.4565    0.0000 C   0  0  0  0  0  0  0  0  0  0  0  0
   -1.0042    0.0585    0.0000 C   0  0  0  0  0  0  0  0  0  0  0  0
    0.1462   -0.9041    0.0000 C   0  0  0  0  0  0  0  0  0  0  0  0
    1.5550   -0.3891    0.0000 C   0  0  0  0  0  0  0  0  0  0  0  0
    1.8135    1.0885    0.0000 C   0  0  0  0  0  0  0  0  0  0  0  0
    3.2223    1.6034    0.0000 C   0  0  0  0  0  0  0  0  0  0  0  0
    4.3727    0.6408    0.0000 C   0  0  0  0  0  0  0  0  0  0  0  0
    4.1143   -0.8367    0.0000 C   0  0  0  0  0  0  0  0  0  0  0  0
    2.7054   -1.3517    0.0000 C   0  0  0  0  0  0  0  0  0  0  0  0
   -3.5634    0.5061    0.0000 C   0  0  0  0  0  0  0  0  0  0  0  0
   -3.3050    1.9837    0.0000 O   0  0  0  0  0  0  0  0  0  0  0  0
   -4.9723   -0.0089    0.0000 O   0  0  0  0  0  0  0  0  0  0  0  0
  2  1  1  6
  2  3  1  0
  3  4  1  0
  4  5  1  0
  5  6  2  0
  6  7  1  0
  7  8  2  0
  8  9  1  0
  9 10  2  0
  2 11  1  0
 11 12  2  0
 11 13  1  0
 10  5  1  0
M  END
>  <rName>  (624) 
hPhe

>  <PQ_SYMBOL>  (624) 
hPhe

>  <FULL_NAME>  (624) 
Homo-L-Phenylalanine

>  <IUPAC_CONDENSED>  (624) 
hPhe

>  <IUPAC>  (624) 
(2S)-2-amino-4-phenylbutanoic acid

>  <TYPE>  (624) 
Backbone

>  <CLASS>  (624) 
alpha

>  <ANALOG>  (624) 
Phe

>  <MOL_WT>  (624) 
179.21899999999997

>  <LOGP>  (624) 
1.0311

>  <TPSA>  (624) 
63.32000000000001

>  <POPULARITY>  (624) 
37.5

>  <PROTECTED>  (624) 
TRUE

>  <SMILES>  (624) 
N[C@@H](CCc1(ccccc1))C(=O)O

>  <INCHIKEY>  (624) 
JTTHKOPSMAVJFE-VIFPVBQESA-N

$$$$
NMe-Nle
     RDKit          2D

 10  9  0  0  0  0  0  0  0  0999 V2000
   -2.0182    1.4385    0.0000 N   0  0  0  0  0  0  0  0  0  0  0  0
   -3.4137    0.8883    0.0000 C   0  0  0  0  0  0  0  0  0  0  0  0
   -0.8441    0.5050    0.0000 C   0  0  0  0  0  0  0  0  0  0  0  0
    0.5514    1.0552    0.0000 C   0  0  0  0  0  0  0  0  0  0  0  0
    1.7256    0.1218    0.0000 C   0  0  0  0  0  0  0  0  0  0  0  0
    3.1211    0.6719    0.0000 C   0  0  0  0  0  0  0  0  0  0  0  0
    4.2952   -0.2615    0.0000 C   0  0  0  0  0  0  0  0  0  0  0  0
   -1.0653   -0.9785    0.0000 C   0  0  0  0  0  0  0  0  0  0  0  0
   -2.4608   -1.5287    0.0000 O   0  0  0  0  0  0  0  0  0  0  0  0
    0.1088   -1.9120    0.0000 O   0  0  0  0  0  0  0  0  0  0  0  0
  1  2  1  0
  1  3  1  0
  3  4  1  1
  4  5  1  0
  5  6  1  0
  6  7  1  0
  3  8  1  0
  8  9  2  0
  8 10  1  0
M  END
>  <rName>  (625) 
NMe-Nle

>  <PQ_SYMBOL>  (625) 
NMe-Nle

>  <FULL_NAME>  (625) 
N-Methyl-L-Norleucine

>  <IUPAC_CONDENSED>  (625) 
Me-Nle

>  <IUPAC>  (625) 
(2S)-2-(methylamino)hexanoic acid

>  <TYPE>  (625) 
Backbone

>  <CLASS>  (625) 
alpha

>  <ANALOG>  (625) 
Leu

>  <MOL_WT>  (625) 
145.202

>  <LOGP>  (625) 
0.8492

>  <TPSA>  (625) 
49.33

>  <POPULARITY>  (625) 
37.8

>  <PROTECTED>  (625) 
TRUE

>  <SMILES>  (625) 
N(C)[C@@H](CCCC)C(=O)O

>  <INCHIKEY>  (625) 
FPDYKABXINADKS-LURJTMIESA-N

$$$$
Bpa
     RDKit          2D

 20 21  0  0  0  0  0  0  0  0999 V2000
   -4.1652    1.5275    0.0000 N   0  0  0  0  0  0  0  0  0  0  0  0
   -4.3980    0.0457    0.0000 C   0  0  0  0  0  0  0  0  0  0  0  0
   -3.2311   -0.8968    0.0000 C   0  0  0  0  0  0  0  0  0  0  0  0
   -1.8314   -0.3576    0.0000 C   0  0  0  0  0  0  0  0  0  0  0  0
   -1.5986    1.1243    0.0000 C   0  0  0  0  0  0  0  0  0  0  0  0
   -0.1989    1.6635    0.0000 C   0  0  0  0  0  0  0  0  0  0  0  0
    0.9680    0.7210    0.0000 C   0  0  0  0  0  0  0  0  0  0  0  0
    0.7352   -0.7608    0.0000 C   0  0  0  0  0  0  0  0  0  0  0  0
   -0.6645   -1.3001    0.0000 C   0  0  0  0  0  0  0  0  0  0  0  0
    2.3677    1.2603    0.0000 C   0  0  0  0  0  0  0  0  0  0  0  0
    2.6006    2.7421    0.0000 O   0  0  0  0  0  0  0  0  0  0  0  0
    3.5346    0.3177    0.0000 C   0  0  0  0  0  0  0  0  0  0  0  0
    3.3018   -1.1641    0.0000 C   0  0  0  0  0  0  0  0  0  0  0  0
    4.4687   -2.1067    0.0000 C   0  0  0  0  0  0  0  0  0  0  0  0
    5.8684   -1.5674    0.0000 C   0  0  0  0  0  0  0  0  0  0  0  0
    6.1012   -0.0856    0.0000 C   0  0  0  0  0  0  0  0  0  0  0  0
    4.9343    0.8570    0.0000 C   0  0  0  0  0  0  0  0  0  0  0  0
   -5.7977   -0.4936    0.0000 C   0  0  0  0  0  0  0  0  0  0  0  0
   -6.0305   -1.9754    0.0000 O   0  0  0  0  0  0  0  0  0  0  0  0
   -6.9646    0.4490    0.0000 O   0  0  0  0  0  0  0  0  0  0  0  0
  2  1  1  1
  2  3  1  0
  3  4  1  0
  4  5  1  0
  5  6  2  0
  6  7  1  0
  7  8  2  0
  8  9  1  0
  7 10  1  0
 10 11  2  0
 10 12  1  0
 12 13  2  0
 13 14  1  0
 14 15  2  0
 15 16  1  0
 16 17  2  0
  2 18  1  0
 18 19  2  0
 18 20  1  0
  9  4  2  0
 17 12  1  0
M  END
>  <rName>  (626) 
Bpa

>  <PQ_SYMBOL>  (626) 
Bpa

>  <FULL_NAME>  (626) 
4-Benzoyl-L-Phenylalanine

>  <IUPAC_CONDENSED>  (626) 
Bpa

>  <IUPAC>  (626) 
(2S)-2-amino-3-(4-((phenyl)carbonyl)phenyl)propanoic acid

>  <TYPE>  (626) 
Backbone

>  <CLASS>  (626) 
alpha

>  <ANALOG>  (626) 
Phe

>  <MOL_WT>  (626) 
269.29999999999995

>  <LOGP>  (626) 
1.872

>  <TPSA>  (626) 
80.39

>  <POPULARITY>  (626) 
30.7

>  <PROTECTED>  (626) 
TRUE

>  <SMILES>  (626) 
N[C@@H](Cc1(ccc(cc1)C(=O)c2(ccccc2)))C(=O)O

>  <INCHIKEY>  (626) 
TVIDEEHSOPHZBR-AWEZNQCLSA-N

$$$$
NMe-A
     RDKit          2D

  7  6  0  0  0  0  0  0  0  0999 V2000
    1.5000   -0.7423    0.0000 N   0  0  0  0  0  0  0  0  0  0  0  0
    2.2500    0.5567    0.0000 C   0  0  0  0  0  0  0  0  0  0  0  0
    0.0000   -0.7423    0.0000 C   0  0  0  0  0  0  0  0  0  0  0  0
   -0.7500   -2.0413    0.0000 C   0  0  0  0  0  0  0  0  0  0  0  0
   -0.7500    0.5567    0.0000 C   0  0  0  0  0  0  0  0  0  0  0  0
   -0.0000    1.8558    0.0000 O   0  0  0  0  0  0  0  0  0  0  0  0
   -2.2500    0.5567    0.0000 O   0  0  0  0  0  0  0  0  0  0  0  0
  1  2  1  0
  1  3  1  0
  3  4  1  1
  3  5  1  0
  5  6  2  0
  5  7  1  0
M  END
>  <rName>  (627) 
NMe-A

>  <PQ_SYMBOL>  (627) 
NMe-A

>  <FULL_NAME>  (627) 
N-Methyl-L-Alanine

>  <IUPAC_CONDENSED>  (627) 
Me-Ala

>  <IUPAC>  (627) 
(2S)-2-(methylamino)propanoic acid

>  <TYPE>  (627) 
Backbone

>  <CLASS>  (627) 
alpha

>  <ANALOG>  (627) 
Ala

>  <MOL_WT>  (627) 
103.12099999999998

>  <LOGP>  (627) 
-0.3211000000000002

>  <TPSA>  (627) 
49.33

>  <POPULARITY>  (627) 
50.5

>  <PROTECTED>  (627) 
TRUE

>  <SMILES>  (627) 
N(C)[C@@H](C)C(=O)O

>  <INCHIKEY>  (627) 
GDFAOVXKHJXLEI-VKHMYHEASA-N

$$$$
Pyr
     RDKit          2D

  9  9  0  0  0  0  0  0  0  0999 V2000
   -0.6334   -0.9301    0.0000 N   0  0  0  0  0  0  0  0  0  0  0  0
    0.4598    0.0969    0.0000 C   0  0  0  0  0  0  0  0  0  0  0  0
   -0.1792    1.4541    0.0000 C   0  0  0  0  0  0  0  0  0  0  0  0
   -1.6673    1.2657    0.0000 C   0  0  0  0  0  0  0  0  0  0  0  0
   -1.9481   -0.2077    0.0000 C   0  0  0  0  0  0  0  0  0  0  0  0
   -3.3052   -0.8467    0.0000 O   0  0  0  0  0  0  0  0  0  0  0  0
    1.9333   -0.1838    0.0000 C   0  0  0  0  0  0  0  0  0  0  0  0
    2.9132    0.9519    0.0000 O   0  0  0  0  0  0  0  0  0  0  0  0
    2.4269   -1.6003    0.0000 O   0  0  0  0  0  0  0  0  0  0  0  0
  1  2  1  0
  2  3  1  0
  3  4  1  0
  4  5  1  0
  5  6  2  0
  2  7  1  1
  7  8  2  0
  7  9  1  0
  5  1  1  0
M  END
>  <rName>  (628) 
Pyr

>  <PQ_SYMBOL>  (628) 
Pyr

>  <FULL_NAME>  (628) 
L-Pyroglutamic acid

>  <IUPAC_CONDENSED>  (628) 
Pyr

>  <IUPAC>  (628) 
(2S)-5-oxopyrrolidine-2-carboxylic acid

>  <TYPE>  (628) 
Backbone

>  <CLASS>  (628) 
alpha

>  <ANALOG>  (628) 
X

>  <MOL_WT>  (628) 
129.115

>  <LOGP>  (628) 
-0.6504000000000001

>  <TPSA>  (628) 
66.4

>  <POPULARITY>  (628) 
58.8

>  <PROTECTED>  (628) 
TRUE

>  <SMILES>  (628) 
N1[C@@H](CCC1=O)C(=O)O

>  <INCHIKEY>  (628) 
ODHCTXKNWHHXJC-VKHMYHEASA-N

$$$$
D-Nle_Et
     RDKit          2D

 11 10  0  0  0  0  0  0  0  0999 V2000
    1.9630   -1.8884    0.0000 N   0  0  0  0  0  0  0  0  0  0  0  0
    1.9989   -0.3888    0.0000 C   0  0  0  0  0  0  0  0  0  0  0  0
    0.7181    0.3920    0.0000 C   0  0  0  0  0  0  0  0  0  0  0  0
   -0.5985   -0.3267    0.0000 C   0  0  0  0  0  0  0  0  0  0  0  0
   -1.8792    0.4541    0.0000 C   0  0  0  0  0  0  0  0  0  0  0  0
   -3.1958   -0.2646    0.0000 C   0  0  0  0  0  0  0  0  0  0  0  0
   -4.4765    0.5162    0.0000 C   0  0  0  0  0  0  0  0  0  0  0  0
   -5.7931   -0.2025    0.0000 C   0  0  0  0  0  0  0  0  0  0  0  0
    3.3155    0.3299    0.0000 C   0  0  0  0  0  0  0  0  0  0  0  0
    3.3513    1.8295    0.0000 O   0  0  0  0  0  0  0  0  0  0  0  0
    4.5962   -0.4509    0.0000 O   0  0  0  0  0  0  0  0  0  0  0  0
  2  1  1  6
  2  3  1  0
  3  4  1  0
  4  5  1  0
  5  6  1  0
  6  7  1  0
  7  8  1  0
  2  9  1  0
  9 10  2  0
  9 11  1  0
M  END
>  <rName>  (629) 
D-Nle_Et

>  <PQ_SYMBOL>  (629) 
D-Nle_Et

>  <FULL_NAME>  (629) 
(R)-2-Aminooctanoic acid, R-Capryline

>  <IUPAC_CONDENSED>  (629) 
D-Nle(Et)

>  <IUPAC>  (629) 
(2R)-2-aminooctanoic acid

>  <TYPE>  (629) 
Backbone

>  <CLASS>  (629) 
alpha

>  <ANALOG>  (629) 
Leu

>  <MOL_WT>  (629) 
159.229

>  <LOGP>  (629) 
1.3687

>  <TPSA>  (629) 
63.32000000000001

>  <POPULARITY>  (629) 
16.5

>  <PROTECTED>  (629) 
TRUE

>  <SMILES>  (629) 
N[C@H](CCCCCC)C(=O)O

>  <INCHIKEY>  (629) 
AKVBCGQVQXPRLD-SSDOTTSWSA-N

$$$$
NMe-dM
     RDKit          2D

 10  9  0  0  0  0  0  0  0  0999 V2000
   -2.0182    1.4385    0.0000 N   0  0  0  0  0  0  0  0  0  0  0  0
   -3.4137    0.8883    0.0000 C   0  0  0  0  0  0  0  0  0  0  0  0
   -0.8441    0.5050    0.0000 C   0  0  0  0  0  0  0  0  0  0  0  0
    0.5514    1.0552    0.0000 C   0  0  0  0  0  0  0  0  0  0  0  0
    1.7256    0.1218    0.0000 C   0  0  0  0  0  0  0  0  0  0  0  0
    3.1211    0.6719    0.0000 S   0  0  0  0  0  0  0  0  0  0  0  0
    4.2952   -0.2615    0.0000 C   0  0  0  0  0  0  0  0  0  0  0  0
   -1.0653   -0.9785    0.0000 C   0  0  0  0  0  0  0  0  0  0  0  0
   -2.4608   -1.5287    0.0000 O   0  0  0  0  0  0  0  0  0  0  0  0
    0.1088   -1.9120    0.0000 O   0  0  0  0  0  0  0  0  0  0  0  0
  1  2  1  0
  1  3  1  0
  3  4  1  6
  4  5  1  0
  5  6  1  0
  6  7  1  0
  3  8  1  0
  8  9  2  0
  8 10  1  0
M  END
>  <rName>  (630) 
NMe-dM

>  <PQ_SYMBOL>  (630) 
NMe-dM

>  <FULL_NAME>  (630) 
N-Methyl-D-Methionine

>  <IUPAC_CONDENSED>  (630) 
Me-D-Met

>  <IUPAC>  (630) 
(2R)-2-(methylamino)-4-(methylsulfanyl)butanoic acid

>  <TYPE>  (630) 
Backbone

>  <CLASS>  (630) 
alpha

>  <ANALOG>  (630) 
Met

>  <MOL_WT>  (630) 
163.242

>  <LOGP>  (630) 
0.41209999999999986

>  <TPSA>  (630) 
49.33

>  <POPULARITY>  (630) 
8.9

>  <PROTECTED>  (630) 
TRUE

>  <SMILES>  (630) 
N(C)[C@H](CCSC)C(=O)O

>  <INCHIKEY>  (630) 
YAXAFCHJCYILRU-RXMQYKEDSA-N

$$$$
NMe-E
     RDKit          2D

 11 10  0  0  0  0  0  0  0  0999 V2000
   -2.1418    1.5326    0.0000 N   0  0  0  0  0  0  0  0  0  0  0  0
   -3.5967    1.1676    0.0000 C   0  0  0  0  0  0  0  0  0  0  0  0
   -1.0983    0.4550    0.0000 C   0  0  0  0  0  0  0  0  0  0  0  0
    0.3567    0.8200    0.0000 C   0  0  0  0  0  0  0  0  0  0  0  0
    1.4002   -0.2575    0.0000 C   0  0  0  0  0  0  0  0  0  0  0  0
    2.8551    0.1074    0.0000 C   0  0  0  0  0  0  0  0  0  0  0  0
    3.2665    1.5499    0.0000 O   0  0  0  0  0  0  0  0  0  0  0  0
    3.8986   -0.9701    0.0000 O   0  0  0  0  0  0  0  0  0  0  0  0
   -1.5097   -0.9874    0.0000 C   0  0  0  0  0  0  0  0  0  0  0  0
   -2.9646   -1.3524    0.0000 O   0  0  0  0  0  0  0  0  0  0  0  0
   -0.4661   -2.0650    0.0000 O   0  0  0  0  0  0  0  0  0  0  0  0
  1  2  1  0
  1  3  1  0
  3  4  1  1
  4  5  1  0
  5  6  1  0
  6  7  2  0
  6  8  1  0
  3  9  1  0
  9 10  2  0
  9 11  1  0
M  END
>  <rName>  (631) 
NMe-E

>  <PQ_SYMBOL>  (631) 
NMe-E

>  <FULL_NAME>  (631) 
N-Methyl-L-Glutamic acid

>  <IUPAC_CONDENSED>  (631) 
Me-Glu

>  <IUPAC>  (631) 
(2S)-2-(methylamino)glutaric acid

>  <TYPE>  (631) 
Backbone

>  <CLASS>  (631) 
alpha

>  <ANALOG>  (631) 
Glu

>  <MOL_WT>  (631) 
161.15699999999998

>  <LOGP>  (631) 
-0.47620000000000046

>  <TPSA>  (631) 
86.63000000000001

>  <POPULARITY>  (631) 
29.3

>  <PROTECTED>  (631) 
TRUE

>  <SMILES>  (631) 
N(C)[C@@H](CCC(=O)O)C(=O)O

>  <INCHIKEY>  (631) 
XLBVNMSMFQMKEY-BYPYZUCNSA-N

$$$$
NMe-dE
     RDKit          2D

 11 10  0  0  0  0  0  0  0  0999 V2000
   -2.1418    1.5326    0.0000 N   0  0  0  0  0  0  0  0  0  0  0  0
   -3.5967    1.1676    0.0000 C   0  0  0  0  0  0  0  0  0  0  0  0
   -1.0983    0.4550    0.0000 C   0  0  0  0  0  0  0  0  0  0  0  0
    0.3567    0.8200    0.0000 C   0  0  0  0  0  0  0  0  0  0  0  0
    1.4002   -0.2575    0.0000 C   0  0  0  0  0  0  0  0  0  0  0  0
    2.8551    0.1074    0.0000 C   0  0  0  0  0  0  0  0  0  0  0  0
    3.2665    1.5499    0.0000 O   0  0  0  0  0  0  0  0  0  0  0  0
    3.8986   -0.9701    0.0000 O   0  0  0  0  0  0  0  0  0  0  0  0
   -1.5097   -0.9874    0.0000 C   0  0  0  0  0  0  0  0  0  0  0  0
   -2.9646   -1.3524    0.0000 O   0  0  0  0  0  0  0  0  0  0  0  0
   -0.4661   -2.0650    0.0000 O   0  0  0  0  0  0  0  0  0  0  0  0
  1  2  1  0
  1  3  1  0
  3  4  1  6
  4  5  1  0
  5  6  1  0
  6  7  2  0
  6  8  1  0
  3  9  1  0
  9 10  2  0
  9 11  1  0
M  END
>  <rName>  (632) 
NMe-dE

>  <PQ_SYMBOL>  (632) 
NMe-dE

>  <FULL_NAME>  (632) 
N-Methyl-D-Glutamic acid

>  <IUPAC_CONDENSED>  (632) 
Me-D-Glu

>  <IUPAC>  (632) 
(2R)-2-(methylamino)glutaric acid

>  <TYPE>  (632) 
Backbone

>  <CLASS>  (632) 
alpha

>  <ANALOG>  (632) 
Glu

>  <MOL_WT>  (632) 
161.15699999999998

>  <LOGP>  (632) 
-0.47620000000000046

>  <TPSA>  (632) 
86.63000000000001

>  <POPULARITY>  (632) 
16

>  <PROTECTED>  (632) 
TRUE

>  <SMILES>  (632) 
N(C)[C@H](CCC(=O)O)C(=O)O

>  <INCHIKEY>  (632) 
XLBVNMSMFQMKEY-SCSAIBSYSA-N

$$$$
NMe-D-Nle
     RDKit          2D

 10  9  0  0  0  0  0  0  0  0999 V2000
   -2.0182    1.4385    0.0000 N   0  0  0  0  0  0  0  0  0  0  0  0
   -3.4137    0.8883    0.0000 C   0  0  0  0  0  0  0  0  0  0  0  0
   -0.8441    0.5050    0.0000 C   0  0  0  0  0  0  0  0  0  0  0  0
    0.5514    1.0552    0.0000 C   0  0  0  0  0  0  0  0  0  0  0  0
    1.7256    0.1218    0.0000 C   0  0  0  0  0  0  0  0  0  0  0  0
    3.1211    0.6719    0.0000 C   0  0  0  0  0  0  0  0  0  0  0  0
    4.2952   -0.2615    0.0000 C   0  0  0  0  0  0  0  0  0  0  0  0
   -1.0653   -0.9785    0.0000 C   0  0  0  0  0  0  0  0  0  0  0  0
   -2.4608   -1.5287    0.0000 O   0  0  0  0  0  0  0  0  0  0  0  0
    0.1088   -1.9120    0.0000 O   0  0  0  0  0  0  0  0  0  0  0  0
  1  2  1  0
  1  3  1  0
  3  4  1  6
  4  5  1  0
  5  6  1  0
  6  7  1  0
  3  8  1  0
  8  9  2  0
  8 10  1  0
M  END
>  <rName>  (633) 
NMe-D-Nle

>  <PQ_SYMBOL>  (633) 
NMe-D-Nle

>  <FULL_NAME>  (633) 
N-Methyl-D-Norleucine

>  <IUPAC_CONDENSED>  (633) 
Me-D-Nle

>  <IUPAC>  (633) 
(2R)-2-(methylamino)hexanoic acid

>  <TYPE>  (633) 
Backbone

>  <CLASS>  (633) 
alpha

>  <ANALOG>  (633) 
Leu

>  <MOL_WT>  (633) 
145.202

>  <LOGP>  (633) 
0.8492

>  <TPSA>  (633) 
49.33

>  <POPULARITY>  (633) 
21

>  <PROTECTED>  (633) 
TRUE

>  <SMILES>  (633) 
N(C)[C@H](CCCC)C(=O)O

>  <INCHIKEY>  (633) 
FPDYKABXINADKS-ZCFIWIBFSA-N

$$$$
Lys_acetyl
     RDKit          2D

 13 12  0  0  0  0  0  0  0  0999 V2000
   -2.9072   -1.8790    0.0000 N   0  0  0  0  0  0  0  0  0  0  0  0
   -2.9824   -0.3808    0.0000 C   0  0  0  0  0  0  0  0  0  0  0  0
   -1.7226    0.4334    0.0000 C   0  0  0  0  0  0  0  0  0  0  0  0
   -0.3876   -0.2505    0.0000 C   0  0  0  0  0  0  0  0  0  0  0  0
    0.8722    0.5637    0.0000 C   0  0  0  0  0  0  0  0  0  0  0  0
    2.2072   -0.1202    0.0000 C   0  0  0  0  0  0  0  0  0  0  0  0
    3.4670    0.6940    0.0000 N   0  0  0  0  0  0  0  0  0  0  0  0
    4.8020    0.0101    0.0000 C   0  0  0  0  0  0  0  0  0  0  0  0
    4.8772   -1.4880    0.0000 O   0  0  0  0  0  0  0  0  0  0  0  0
    6.0618    0.8243    0.0000 C   0  0  0  0  0  0  0  0  0  0  0  0
   -4.3175    0.3030    0.0000 C   0  0  0  0  0  0  0  0  0  0  0  0
   -4.3927    1.8012    0.0000 O   0  0  0  0  0  0  0  0  0  0  0  0
   -5.5772   -0.5112    0.0000 O   0  0  0  0  0  0  0  0  0  0  0  0
  2  1  1  6
  2  3  1  0
  3  4  1  0
  4  5  1  0
  5  6  1  0
  6  7  1  0
  7  8  1  0
  8  9  2  0
  8 10  1  0
  2 11  1  0
 11 12  2  0
 11 13  1  0
M  END
>  <rName>  (634) 
Lys_acetyl

>  <PQ_SYMBOL>  (634) 
Lys_acetyl

>  <FULL_NAME>  (634) 
N6-Acetyl-L-Lysine

>  <IUPAC_CONDENSED>  (634) 
Lys(Ac)

>  <IUPAC>  (634) 
(2S)-2-amino-6-methylcarbonylaminohexanoic acid

>  <TYPE>  (634) 
Backbone

>  <CLASS>  (634) 
alpha

>  <ANALOG>  (634) 
Lys

>  <MOL_WT>  (634) 
188.227

>  <LOGP>  (634) 
-0.2953000000000006

>  <TPSA>  (634) 
92.42

>  <POPULARITY>  (634) 
40.3

>  <PROTECTED>  (634) 
TRUE

>  <SMILES>  (634) 
N[C@@H](CCCCNC(=O)C)C(=O)O

>  <INCHIKEY>  (634) 
DTERQYGMUDWYAZ-ZETCQYMHSA-N

$$$$
D-Agl
     RDKit          2D

  6  5  0  0  0  0  0  0  0  0999 V2000
   -1.5000    1.2990    0.0000 N   0  0  0  0  0  0  0  0  0  0  0  0
   -0.7500    0.0000    0.0000 C   0  0  0  0  0  0  0  0  0  0  0  0
   -1.5000   -1.2990    0.0000 N   0  0  0  0  0  0  0  0  0  0  0  0
    0.7500   -0.0000    0.0000 C   0  0  0  0  0  0  0  0  0  0  0  0
    1.5000    1.2990    0.0000 O   0  0  0  0  0  0  0  0  0  0  0  0
    1.5000   -1.2990    0.0000 O   0  0  0  0  0  0  0  0  0  0  0  0
  1  2  1  0
  2  3  1  0
  2  4  1  0
  4  5  2  0
  4  6  1  0
M  END
>  <rName>  (635) 
D-Agl

>  <PQ_SYMBOL>  (635) 
D-Agl

>  <FULL_NAME>  (635) 
D-Diaminoacetic acid

>  <IUPAC_CONDENSED>  (635) 
D-Agl

>  <IUPAC>  (635) 
2,2-diaminoacetic acid

>  <TYPE>  (635) 
Backbone

>  <CLASS>  (635) 
alpha

>  <ANALOG>  (635) 
X

>  <MOL_WT>  (635) 
90.08199999999998

>  <LOGP>  (635) 
-1.6855000000000002

>  <TPSA>  (635) 
89.34

>  <POPULARITY>  (635) 
14.9

>  <PROTECTED>  (635) 
TRUE

>  <SMILES>  (635) 
NC(N)C(=O)O

>  <INCHIKEY>  (635) 
MAEDLSNGVQYGPK-UHFFFAOYSA-N

$$$$
Agl
     RDKit          2D

  6  5  0  0  0  0  0  0  0  0999 V2000
   -1.5000    1.2990    0.0000 N   0  0  0  0  0  0  0  0  0  0  0  0
   -0.7500    0.0000    0.0000 C   0  0  0  0  0  0  0  0  0  0  0  0
   -1.5000   -1.2990    0.0000 N   0  0  0  0  0  0  0  0  0  0  0  0
    0.7500   -0.0000    0.0000 C   0  0  0  0  0  0  0  0  0  0  0  0
    1.5000    1.2990    0.0000 O   0  0  0  0  0  0  0  0  0  0  0  0
    1.5000   -1.2990    0.0000 O   0  0  0  0  0  0  0  0  0  0  0  0
  1  2  1  0
  2  3  1  0
  2  4  1  0
  4  5  2  0
  4  6  1  0
M  END
>  <rName>  (636) 
Agl

>  <PQ_SYMBOL>  (636) 
Agl

>  <FULL_NAME>  (636) 
L-Diaminoacetic acid

>  <IUPAC_CONDENSED>  (636) 
Agl

>  <IUPAC>  (636) 
2,2-diaminoacetic acid

>  <TYPE>  (636) 
Backbone

>  <CLASS>  (636) 
alpha

>  <ANALOG>  (636) 
X

>  <MOL_WT>  (636) 
90.08199999999998

>  <LOGP>  (636) 
-1.6855000000000002

>  <TPSA>  (636) 
89.34

>  <POPULARITY>  (636) 
9.7

>  <PROTECTED>  (636) 
FALSE

>  <SMILES>  (636) 
NC(N)C(=O)O

>  <INCHIKEY>  (636) 
MAEDLSNGVQYGPK-UHFFFAOYSA-N

$$$$
4Pal
     RDKit          2D

 12 12  0  0  0  0  0  0  0  0999 V2000
   -1.2391    1.6805    0.0000 N   0  0  0  0  0  0  0  0  0  0  0  0
   -1.6184    0.2292    0.0000 C   0  0  0  0  0  0  0  0  0  0  0  0
   -0.5513   -0.8249    0.0000 C   0  0  0  0  0  0  0  0  0  0  0  0
    0.8952   -0.4278    0.0000 C   0  0  0  0  0  0  0  0  0  0  0  0
    1.2745    1.0235    0.0000 C   0  0  0  0  0  0  0  0  0  0  0  0
    2.7210    1.4206    0.0000 C   0  0  0  0  0  0  0  0  0  0  0  0
    3.7882    0.3665    0.0000 N   0  0  0  0  0  0  0  0  0  0  0  0
    3.4088   -1.0848    0.0000 C   0  0  0  0  0  0  0  0  0  0  0  0
    1.9624   -1.4819    0.0000 C   0  0  0  0  0  0  0  0  0  0  0  0
   -3.0649   -0.1679    0.0000 C   0  0  0  0  0  0  0  0  0  0  0  0
   -3.4442   -1.6191    0.0000 O   0  0  0  0  0  0  0  0  0  0  0  0
   -4.1321    0.8862    0.0000 O   0  0  0  0  0  0  0  0  0  0  0  0
  2  1  1  1
  2  3  1  0
  3  4  1  0
  4  5  1  0
  5  6  2  0
  6  7  1  0
  7  8  2  0
  8  9  1  0
  2 10  1  0
 10 11  2  0
 10 12  1  0
  9  4  2  0
M  END
>  <rName>  (637) 
4Pal

>  <PQ_SYMBOL>  (637) 
4Pal

>  <FULL_NAME>  (637) 
3-(4-Pyridyl)-L-Alanine

>  <IUPAC_CONDENSED>  (637) 
4Pal

>  <IUPAC>  (637) 
(2S)-2-amino-3-(pyridin-4-yl)propanoic acid

>  <TYPE>  (637) 
Backbone

>  <CLASS>  (637) 
alpha

>  <ANALOG>  (637) 
Phe

>  <MOL_WT>  (637) 
166.17999999999998

>  <LOGP>  (637) 
0.035999999999999754

>  <TPSA>  (637) 
76.21

>  <POPULARITY>  (637) 
24.4

>  <PROTECTED>  (637) 
TRUE

>  <SMILES>  (637) 
N[C@@H](Cc1(ccncc1))C(=O)O

>  <INCHIKEY>  (637) 
FQFVANSXYKWQOT-ZETCQYMHSA-N

$$$$
3Pal
     RDKit          2D

 12 12  0  0  0  0  0  0  0  0999 V2000
   -1.2391    1.6805    0.0000 N   0  0  0  0  0  0  0  0  0  0  0  0
   -1.6184    0.2292    0.0000 C   0  0  0  0  0  0  0  0  0  0  0  0
   -0.5513   -0.8249    0.0000 C   0  0  0  0  0  0  0  0  0  0  0  0
    0.8952   -0.4278    0.0000 C   0  0  0  0  0  0  0  0  0  0  0  0
    1.2745    1.0235    0.0000 C   0  0  0  0  0  0  0  0  0  0  0  0
    2.7210    1.4206    0.0000 C   0  0  0  0  0  0  0  0  0  0  0  0
    3.7882    0.3665    0.0000 C   0  0  0  0  0  0  0  0  0  0  0  0
    3.4088   -1.0848    0.0000 N   0  0  0  0  0  0  0  0  0  0  0  0
    1.9624   -1.4819    0.0000 C   0  0  0  0  0  0  0  0  0  0  0  0
   -3.0649   -0.1679    0.0000 C   0  0  0  0  0  0  0  0  0  0  0  0
   -3.4442   -1.6191    0.0000 O   0  0  0  0  0  0  0  0  0  0  0  0
   -4.1321    0.8862    0.0000 O   0  0  0  0  0  0  0  0  0  0  0  0
  2  1  1  1
  2  3  1  0
  3  4  1  0
  4  5  2  0
  5  6  1  0
  6  7  2  0
  7  8  1  0
  8  9  2  0
  2 10  1  0
 10 11  2  0
 10 12  1  0
  9  4  1  0
M  END
>  <rName>  (638) 
3Pal

>  <PQ_SYMBOL>  (638) 
3Pal

>  <FULL_NAME>  (638) 
3-(3-Pyridyl)-L-Alanine, 3-Pya

>  <IUPAC_CONDENSED>  (638) 
3Pal

>  <IUPAC>  (638) 
(2S)-2-amino-3-(pyridin-3-yl)propanoic acid

>  <TYPE>  (638) 
Backbone

>  <CLASS>  (638) 
alpha

>  <ANALOG>  (638) 
Phe

>  <MOL_WT>  (638) 
166.17999999999998

>  <LOGP>  (638) 
0.0360000000000002

>  <TPSA>  (638) 
76.21

>  <POPULARITY>  (638) 
31.3

>  <PROTECTED>  (638) 
TRUE

>  <SMILES>  (638) 
N[C@@H](Cc1(cccnc1))C(=O)O

>  <INCHIKEY>  (638) 
DFZVZEMNPGABKO-ZETCQYMHSA-N

$$$$
D-Phe_4Cl
     RDKit          2D

 13 13  0  0  0  0  0  0  0  0999 V2000
   -1.5766    1.6851    0.0000 N   0  0  0  0  0  0  0  0  0  0  0  0
   -2.0128    0.2500    0.0000 C   0  0  0  0  0  0  0  0  0  0  0  0
   -0.9880   -0.8454    0.0000 C   0  0  0  0  0  0  0  0  0  0  0  0
    0.4730   -0.5055    0.0000 C   0  0  0  0  0  0  0  0  0  0  0  0
    0.9092    0.9296    0.0000 C   0  0  0  0  0  0  0  0  0  0  0  0
    2.3702    1.2695    0.0000 C   0  0  0  0  0  0  0  0  0  0  0  0
    3.3950    0.1741    0.0000 C   0  0  0  0  0  0  0  0  0  0  0  0
    4.8560    0.5140    0.0000 Cl  0  0  0  0  0  0  0  0  0  0  0  0
    2.9588   -1.2611    0.0000 C   0  0  0  0  0  0  0  0  0  0  0  0
    1.4978   -1.6009    0.0000 C   0  0  0  0  0  0  0  0  0  0  0  0
   -3.4738   -0.0899    0.0000 C   0  0  0  0  0  0  0  0  0  0  0  0
   -3.9100   -1.5250    0.0000 O   0  0  0  0  0  0  0  0  0  0  0  0
   -4.4986    1.0055    0.0000 O   0  0  0  0  0  0  0  0  0  0  0  0
  2  1  1  6
  2  3  1  0
  3  4  1  0
  4  5  1  0
  5  6  2  0
  6  7  1  0
  7  8  1  0
  7  9  2  0
  9 10  1  0
  2 11  1  0
 11 12  2  0
 11 13  1  0
 10  4  2  0
M  END
>  <rName>  (639) 
D-Phe_4Cl

>  <PQ_SYMBOL>  (639) 
D-Phe_4Cl

>  <FULL_NAME>  (639) 
4-Chloro-D-Phenylalanine

>  <IUPAC_CONDENSED>  (639) 
D-Phe(4-Cl)

>  <IUPAC>  (639) 
(2R)-2-amino-3-(4-chlorophenyl)propanoic acid

>  <TYPE>  (639) 
Backbone

>  <CLASS>  (639) 
alpha

>  <ANALOG>  (639) 
Phe

>  <MOL_WT>  (639) 
199.637

>  <LOGP>  (639) 
1.2944000000000002

>  <TPSA>  (639) 
63.32000000000001

>  <POPULARITY>  (639) 
29.8

>  <PROTECTED>  (639) 
TRUE

>  <SMILES>  (639) 
N[C@H](Cc1(ccc(Cl)cc1))C(=O)O

>  <INCHIKEY>  (639) 
NIGWMJHCCYYCSF-MRVPVSSYSA-N

$$$$
D-Phe_3Cl
     RDKit          2D

 13 13  0  0  0  0  0  0  0  0999 V2000
   -1.7680    1.6690    0.0000 N   0  0  0  0  0  0  0  0  0  0  0  0
   -1.9932    0.1860    0.0000 C   0  0  0  0  0  0  0  0  0  0  0  0
   -0.8215   -0.7506    0.0000 C   0  0  0  0  0  0  0  0  0  0  0  0
    0.5754   -0.2041    0.0000 C   0  0  0  0  0  0  0  0  0  0  0  0
    0.8006    1.2789    0.0000 C   0  0  0  0  0  0  0  0  0  0  0  0
    2.1976    1.8254    0.0000 C   0  0  0  0  0  0  0  0  0  0  0  0
    3.3693    0.8888    0.0000 C   0  0  0  0  0  0  0  0  0  0  0  0
    3.1441   -0.5942    0.0000 C   0  0  0  0  0  0  0  0  0  0  0  0
    4.3158   -1.5307    0.0000 Cl  0  0  0  0  0  0  0  0  0  0  0  0
    1.7472   -1.1406    0.0000 C   0  0  0  0  0  0  0  0  0  0  0  0
   -3.3901   -0.3605    0.0000 C   0  0  0  0  0  0  0  0  0  0  0  0
   -3.6153   -1.8435    0.0000 O   0  0  0  0  0  0  0  0  0  0  0  0
   -4.5618    0.5760    0.0000 O   0  0  0  0  0  0  0  0  0  0  0  0
  2  1  1  6
  2  3  1  0
  3  4  1  0
  4  5  2  0
  5  6  1  0
  6  7  2  0
  7  8  1  0
  8  9  1  0
  8 10  2  0
  2 11  1  0
 11 12  2  0
 11 13  1  0
 10  4  1  0
M  END
>  <rName>  (640) 
D-Phe_3Cl

>  <PQ_SYMBOL>  (640) 
D-Phe_3Cl

>  <FULL_NAME>  (640) 
3-Chloro-D-Phenylalanine

>  <IUPAC_CONDENSED>  (640) 
D-Phe(3-Cl)

>  <IUPAC>  (640) 
(2R)-2-amino-3-(3-chlorophenyl)propanoic acid

>  <TYPE>  (640) 
Backbone

>  <CLASS>  (640) 
alpha

>  <ANALOG>  (640) 
Phe

>  <MOL_WT>  (640) 
199.63699999999997

>  <LOGP>  (640) 
1.2944000000000002

>  <TPSA>  (640) 
63.32000000000001

>  <POPULARITY>  (640) 
21.5

>  <PROTECTED>  (640) 
TRUE

>  <SMILES>  (640) 
N[C@H](Cc1(cccc(Cl)c1))C(=O)O

>  <INCHIKEY>  (640) 
JJDJLFDGCUYZMN-MRVPVSSYSA-N

$$$$
Aib
     RDKit          2D

  7  6  0  0  0  0  0  0  0  0999 V2000
    2.1429   -0.0000    0.0000 N   0  0  0  0  0  0  0  0  0  0  0  0
    0.6429   -0.0000    0.0000 C   0  0  0  0  0  0  0  0  0  0  0  0
    0.6429    1.5000    0.0000 C   0  0  0  0  0  0  0  0  0  0  0  0
    0.6429   -1.5000    0.0000 C   0  0  0  0  0  0  0  0  0  0  0  0
   -0.8571    0.0000    0.0000 C   0  0  0  0  0  0  0  0  0  0  0  0
   -1.6071    1.2990    0.0000 O   0  0  0  0  0  0  0  0  0  0  0  0
   -1.6071   -1.2990    0.0000 O   0  0  0  0  0  0  0  0  0  0  0  0
  1  2  1  0
  2  3  1  0
  2  4  1  0
  2  5  1  0
  5  6  2  0
  5  7  1  0
M  END
>  <rName>  (641) 
Aib

>  <PQ_SYMBOL>  (641) 
Aib

>  <FULL_NAME>  (641) 
2-Aminoisobutyric Acid, 2-Methyl-Alanine

>  <IUPAC_CONDENSED>  (641) 
Aib

>  <IUPAC>  (641) 
2-amino-2-methylpropanoic acid

>  <TYPE>  (641) 
Backbone

>  <CLASS>  (641) 
alpha

>  <ANALOG>  (641) 
Ala

>  <MOL_WT>  (641) 
103.12099999999998

>  <LOGP>  (641) 
-0.19170000000000004

>  <TPSA>  (641) 
63.32000000000001

>  <POPULARITY>  (641) 
57.5

>  <PROTECTED>  (641) 
TRUE

>  <SMILES>  (641) 
NC(C)(C)C(=O)O

>  <INCHIKEY>  (641) 
FUOOLUPWFVMBKG-UHFFFAOYSA-N

$$$$
Abu_cHex
     RDKit          2D

 13 13  0  0  0  0  0  0  0  0999 V2000
   -2.6715   -1.9340    0.0000 N   0  0  0  0  0  0  0  0  0  0  0  0
   -2.4130   -0.4565    0.0000 C   0  0  0  0  0  0  0  0  0  0  0  0
   -1.0042    0.0585    0.0000 C   0  0  0  0  0  0  0  0  0  0  0  0
    0.1462   -0.9041    0.0000 C   0  0  0  0  0  0  0  0  0  0  0  0
    1.5550   -0.3891    0.0000 C   0  0  0  0  0  0  0  0  0  0  0  0
    1.8135    1.0885    0.0000 C   0  0  0  0  0  0  0  0  0  0  0  0
    3.2223    1.6034    0.0000 C   0  0  0  0  0  0  0  0  0  0  0  0
    4.3727    0.6408    0.0000 C   0  0  0  0  0  0  0  0  0  0  0  0
    4.1143   -0.8367    0.0000 C   0  0  0  0  0  0  0  0  0  0  0  0
    2.7054   -1.3517    0.0000 C   0  0  0  0  0  0  0  0  0  0  0  0
   -3.5634    0.5061    0.0000 C   0  0  0  0  0  0  0  0  0  0  0  0
   -3.3050    1.9837    0.0000 O   0  0  0  0  0  0  0  0  0  0  0  0
   -4.9723   -0.0089    0.0000 O   0  0  0  0  0  0  0  0  0  0  0  0
  2  1  1  6
  2  3  1  0
  3  4  1  0
  4  5  1  0
  5  6  1  0
  6  7  1  0
  7  8  1  0
  8  9  1  0
  9 10  1  0
  2 11  1  0
 11 12  2  0
 11 13  1  0
 10  5  1  0
M  END
>  <rName>  (642) 
Abu_cHex

>  <PQ_SYMBOL>  (642) 
Abu_cHex

>  <FULL_NAME>  (642) 
Cyclohexyl-Homo-L-Alanine

>  <IUPAC_CONDENSED>  (642) 
Abu(cHex)

>  <IUPAC>  (642) 
(2S)-2-amino-4-cyclohexylbutanoic acid

>  <TYPE>  (642) 
Backbone

>  <CLASS>  (642) 
alpha

>  <ANALOG>  (642) 
Ala

>  <MOL_WT>  (642) 
185.267

>  <LOGP>  (642) 
1.7588

>  <TPSA>  (642) 
63.32000000000001

>  <POPULARITY>  (642) 
18.5

>  <PROTECTED>  (642) 
TRUE

>  <SMILES>  (642) 
N[C@@H](CCC1(CCCCC1))C(=O)O

>  <INCHIKEY>  (642) 
MXHKOHWUQAULOV-VIFPVBQESA-N

$$$$
NMe-R
     RDKit          2D

 13 12  0  0  0  0  0  0  0  0999 V2000
   -3.3767    1.4803    0.0000 N   0  0  0  0  0  0  0  0  0  0  0  0
   -4.7951    0.9924    0.0000 C   0  0  0  0  0  0  0  0  0  0  0  0
   -2.2449    0.4958    0.0000 C   0  0  0  0  0  0  0  0  0  0  0  0
   -0.8265    0.9838    0.0000 C   0  0  0  0  0  0  0  0  0  0  0  0
    0.3053   -0.0007    0.0000 C   0  0  0  0  0  0  0  0  0  0  0  0
    1.7237    0.4873    0.0000 C   0  0  0  0  0  0  0  0  0  0  0  0
    2.8555   -0.4972    0.0000 N   0  0  0  0  0  0  0  0  0  0  0  0
    4.2739   -0.0092    0.0000 C   0  0  0  0  0  0  0  0  0  0  0  0
    4.5606    1.4631    0.0000 N   0  0  0  0  0  0  0  0  0  0  0  0
    5.4057   -0.9937    0.0000 N   0  0  0  0  0  0  0  0  0  0  0  0
   -2.5316   -0.9765    0.0000 C   0  0  0  0  0  0  0  0  0  0  0  0
   -3.9500   -1.4644    0.0000 O   0  0  0  0  0  0  0  0  0  0  0  0
   -1.3998   -1.9609    0.0000 O   0  0  0  0  0  0  0  0  0  0  0  0
  1  2  1  0
  1  3  1  0
  3  4  1  1
  4  5  1  0
  5  6  1  0
  6  7  1  0
  7  8  1  0
  8  9  2  0
  8 10  1  0
  3 11  1  0
 11 12  2  0
 11 13  1  0
M  END
>  <rName>  (643) 
NMe-R

>  <PQ_SYMBOL>  (643) 
NMe-R

>  <FULL_NAME>  (643) 
N2-Methyl-L-Arginine

>  <IUPAC_CONDENSED>  (643) 
Me-Arg

>  <IUPAC>  (643) 
(2S)-5-(((amino)(imino)methyl)amino)-2-(methylamino)pentanoic acid

>  <TYPE>  (643) 
Backbone

>  <CLASS>  (643) 
alpha

>  <ANALOG>  (643) 
Arg

>  <MOL_WT>  (643) 
188.231

>  <LOGP>  (643) 
-1.077729999999998

>  <TPSA>  (643) 
111.23

>  <POPULARITY>  (643) 
35.6

>  <PROTECTED>  (643) 
TRUE

>  <SMILES>  (643) 
N(C)[C@@H](CCCNC(=N)N)C(=O)O

>  <INCHIKEY>  (643) 
NTWVQPHTOUKMDI-YFKPBYRVSA-N

$$$$
bAla_3SiBu
     RDKit          2D

 10  9  0  0  0  0  0  0  0  0999 V2000
   -0.0000   -1.3500    0.0000 N   0  0  0  0  0  0  0  0  0  0  0  0
   -0.0000    0.1500    0.0000 C   0  0  0  0  0  0  0  0  0  0  0  0
   -1.2990    0.9000    0.0000 C   0  0  0  0  0  0  0  0  0  0  0  0
   -2.5981    0.1500    0.0000 C   0  0  0  0  0  0  0  0  0  0  0  0
   -3.8971    0.9000    0.0000 C   0  0  0  0  0  0  0  0  0  0  0  0
   -2.5981   -1.3500    0.0000 C   0  0  0  0  0  0  0  0  0  0  0  0
    1.2990    0.9000    0.0000 C   0  0  0  0  0  0  0  0  0  0  0  0
    2.5981    0.1500    0.0000 C   0  0  0  0  0  0  0  0  0  0  0  0
    2.5981   -1.3500    0.0000 O   0  0  0  0  0  0  0  0  0  0  0  0
    3.8971    0.9000    0.0000 O   0  0  0  0  0  0  0  0  0  0  0  0
  2  1  1  1
  2  3  1  0
  3  4  1  0
  4  5  1  0
  4  6  1  0
  2  7  1  0
  7  8  1  0
  8  9  2  0
  8 10  1  0
M  END
>  <rName>  (644) 
bAla_3SiBu

>  <PQ_SYMBOL>  (644) 
bAla_3SiBu

>  <FULL_NAME>  (644) 
L-Beta-Homoleucine

>  <IUPAC_CONDENSED>  (644) 
bAla(3S-iBu)

>  <IUPAC>  (644) 
(3S)-3-amino-5-methylhexanoic acid

>  <TYPE>  (644) 
Backbone

>  <CLASS>  (644) 
beta

>  <ANALOG>  (644) 
Leu

>  <MOL_WT>  (644) 
145.202

>  <LOGP>  (644) 
0.8344999999999998

>  <TPSA>  (644) 
63.32000000000001

>  <POPULARITY>  (644) 
26.8

>  <PROTECTED>  (644) 
TRUE

>  <SMILES>  (644) 
N[C@@H](CC(C)C)CC(=O)O

>  <INCHIKEY>  (644) 
MLYMSIKVLAPCAK-LURJTMIESA-N

$$$$
bhThr
     RDKit          2D

  9  8  0  0  0  0  0  0  0  0999 V2000
    0.2826    1.7410    0.0000 N   0  0  0  0  0  0  0  0  0  0  0  0
    0.5402    0.2633    0.0000 C   0  0  0  0  0  0  0  0  0  0  0  0
    1.9487   -0.2525    0.0000 C   0  0  0  0  0  0  0  0  0  0  0  0
    2.2062   -1.7302    0.0000 O   0  0  0  0  0  0  0  0  0  0  0  0
    3.0997    0.7094    0.0000 C   0  0  0  0  0  0  0  0  0  0  0  0
   -0.6108   -0.6986    0.0000 C   0  0  0  0  0  0  0  0  0  0  0  0
   -2.0193   -0.1828    0.0000 C   0  0  0  0  0  0  0  0  0  0  0  0
   -2.2769    1.2950    0.0000 O   0  0  0  0  0  0  0  0  0  0  0  0
   -3.1703   -1.1447    0.0000 O   0  0  0  0  0  0  0  0  0  0  0  0
  2  1  1  1
  2  3  1  0
  3  4  1  0
  3  5  1  1
  2  6  1  0
  6  7  1  0
  7  8  2  0
  7  9  1  0
M  END
>  <rName>  (645) 
bhThr

>  <PQ_SYMBOL>  (645) 
bhThr

>  <FULL_NAME>  (645) 
L-beta-Homothreonine

>  <IUPAC_CONDENSED>  (645) 
bhThr

>  <IUPAC>  (645) 
(3R,4R)-3-amino-4-hydroxypentanoic acid

>  <TYPE>  (645) 
Backbone

>  <CLASS>  (645) 
beta

>  <ANALOG>  (645) 
Thr

>  <MOL_WT>  (645) 
133.14700000000002

>  <LOGP>  (645) 
-0.8308000000000006

>  <TPSA>  (645) 
83.55

>  <POPULARITY>  (645) 
20

>  <PROTECTED>  (645) 
TRUE

>  <SMILES>  (645) 
N[C@@H]([C@H](O)C)CC(=O)O

>  <INCHIKEY>  (645) 
NIVRJEWVLMOZNV-QWWZWVQMSA-N

$$$$
bAla_3SBn_4OH
     RDKit          2D

 14 14  0  0  0  0  0  0  0  0999 V2000
   -1.3163    1.1838    0.0000 N   0  0  0  0  0  0  0  0  0  0  0  0
   -1.5499   -0.2979    0.0000 C   0  0  0  0  0  0  0  0  0  0  0  0
   -0.3836   -1.2411    0.0000 C   0  0  0  0  0  0  0  0  0  0  0  0
    1.0164   -0.7026    0.0000 C   0  0  0  0  0  0  0  0  0  0  0  0
    1.2501    0.7790    0.0000 C   0  0  0  0  0  0  0  0  0  0  0  0
    2.6501    1.3175    0.0000 C   0  0  0  0  0  0  0  0  0  0  0  0
    3.8164    0.3743    0.0000 C   0  0  0  0  0  0  0  0  0  0  0  0
    5.2165    0.9127    0.0000 O   0  0  0  0  0  0  0  0  0  0  0  0
    3.5828   -1.1074    0.0000 C   0  0  0  0  0  0  0  0  0  0  0  0
    2.1827   -1.6459    0.0000 C   0  0  0  0  0  0  0  0  0  0  0  0
   -2.9500   -0.8363    0.0000 C   0  0  0  0  0  0  0  0  0  0  0  0
   -4.1163    0.1069    0.0000 C   0  0  0  0  0  0  0  0  0  0  0  0
   -3.8826    1.5886    0.0000 O   0  0  0  0  0  0  0  0  0  0  0  0
   -5.5163   -0.4316    0.0000 O   0  0  0  0  0  0  0  0  0  0  0  0
  2  1  1  1
  2  3  1  0
  3  4  1  0
  4  5  1  0
  5  6  2  0
  6  7  1  0
  7  8  1  0
  7  9  2  0
  9 10  1  0
  2 11  1  0
 11 12  1  0
 12 13  2  0
 12 14  1  0
 10  4  2  0
M  END
>  <rName>  (646) 
bAla_3SBn_4OH

>  <PQ_SYMBOL>  (646) 
bAla_3SBn_4OH

>  <FULL_NAME>  (646) 
L-Beta-Homotyrosine

>  <IUPAC_CONDENSED>  (646) 
bAla(3S-Bn(4-OH))

>  <IUPAC>  (646) 
(3S)-3-amino-4-(4-hydroxyphenyl)butanoic acid

>  <TYPE>  (646) 
Backbone

>  <CLASS>  (646) 
beta

>  <ANALOG>  (646) 
Tyr

>  <MOL_WT>  (646) 
195.21799999999996

>  <LOGP>  (646) 
0.7367000000000001

>  <TPSA>  (646) 
83.55

>  <POPULARITY>  (646) 
15.6

>  <PROTECTED>  (646) 
TRUE

>  <SMILES>  (646) 
N[C@@H](Cc1(ccc(O)cc1))CC(=O)O

>  <INCHIKEY>  (646) 
VUNPIAMEJXBAFP-QMMMGPOBSA-N

$$$$
Dip
     RDKit          2D

 18 19  0  0  0  0  0  0  0  0999 V2000
    0.8407   -2.9122    0.0000 N   0  0  0  0  0  0  0  0  0  0  0  0
   -0.2402   -1.8721    0.0000 C   0  0  0  0  0  0  0  0  0  0  0  0
    0.1201   -0.4160    0.0000 C   0  0  0  0  0  0  0  0  0  0  0  0
    1.5612    0.0000    0.0000 C   0  0  0  0  0  0  0  0  0  0  0  0
    2.6421   -1.0401    0.0000 C   0  0  0  0  0  0  0  0  0  0  0  0
    4.0833   -0.6240    0.0000 C   0  0  0  0  0  0  0  0  0  0  0  0
    4.4436    0.8321    0.0000 C   0  0  0  0  0  0  0  0  0  0  0  0
    3.3627    1.8721    0.0000 C   0  0  0  0  0  0  0  0  0  0  0  0
    1.9215    1.4561    0.0000 C   0  0  0  0  0  0  0  0  0  0  0  0
   -0.9608    0.6240    0.0000 C   0  0  0  0  0  0  0  0  0  0  0  0
   -0.6005    2.0801    0.0000 C   0  0  0  0  0  0  0  0  0  0  0  0
   -1.6813    3.1202    0.0000 C   0  0  0  0  0  0  0  0  0  0  0  0
   -3.1225    2.7042    0.0000 C   0  0  0  0  0  0  0  0  0  0  0  0
   -3.4828    1.2481    0.0000 C   0  0  0  0  0  0  0  0  0  0  0  0
   -2.4019    0.2080    0.0000 C   0  0  0  0  0  0  0  0  0  0  0  0
   -1.6813   -2.2881    0.0000 C   0  0  0  0  0  0  0  0  0  0  0  0
   -2.7622   -1.2481    0.0000 O   0  0  0  0  0  0  0  0  0  0  0  0
   -2.0416   -3.7442    0.0000 O   0  0  0  0  0  0  0  0  0  0  0  0
  2  1  1  6
  2  3  1  0
  3  4  1  0
  4  5  2  0
  5  6  1  0
  6  7  2  0
  7  8  1  0
  8  9  2  0
  3 10  1  0
 10 11  2  0
 11 12  1  0
 12 13  2  0
 13 14  1  0
 14 15  2  0
  2 16  1  0
 16 17  2  0
 16 18  1  0
  9  4  1  0
 15 10  1  0
M  END
>  <rName>  (647) 
Dip

>  <PQ_SYMBOL>  (647) 
Dip

>  <FULL_NAME>  (647) 
3,3-Diphenyl-L-Alanine

>  <IUPAC_CONDENSED>  (647) 
Dip

>  <IUPAC>  (647) 
(2S)-2-amino-3,3-diphenylpropanoic acid

>  <TYPE>  (647) 
Backbone

>  <CLASS>  (647) 
alpha

>  <ANALOG>  (647) 
Phe

>  <MOL_WT>  (647) 
241.29

>  <LOGP>  (647) 
2.2304

>  <TPSA>  (647) 
63.32000000000001

>  <POPULARITY>  (647) 
31.9

>  <PROTECTED>  (647) 
TRUE

>  <SMILES>  (647) 
N[C@@H](C(c1(ccccc1))c2(ccccc2))C(=O)O

>  <INCHIKEY>  (647) 
PECGVEGMRUZOML-AWEZNQCLSA-N

$$$$
NMe-S
     RDKit          2D

  8  7  0  0  0  0  0  0  0  0999 V2000
   -1.2990    1.3125    0.0000 N   0  0  0  0  0  0  0  0  0  0  0  0
   -2.5981    0.5625    0.0000 C   0  0  0  0  0  0  0  0  0  0  0  0
    0.0000    0.5625    0.0000 C   0  0  0  0  0  0  0  0  0  0  0  0
    1.2990    1.3125    0.0000 C   0  0  0  0  0  0  0  0  0  0  0  0
    2.5981    0.5625    0.0000 O   0  0  0  0  0  0  0  0  0  0  0  0
    0.0000   -0.9375    0.0000 C   0  0  0  0  0  0  0  0  0  0  0  0
   -1.2990   -1.6875    0.0000 O   0  0  0  0  0  0  0  0  0  0  0  0
    1.2990   -1.6875    0.0000 O   0  0  0  0  0  0  0  0  0  0  0  0
  1  2  1  0
  1  3  1  0
  3  4  1  1
  4  5  1  0
  3  6  1  0
  6  7  2  0
  6  8  1  0
M  END
>  <rName>  (648) 
NMe-S

>  <PQ_SYMBOL>  (648) 
NMe-S

>  <FULL_NAME>  (648) 
N-Methyl-L-Serine

>  <IUPAC_CONDENSED>  (648) 
Me-Ser

>  <IUPAC>  (648) 
(2S)-3-hydroxy-2-(methylamino)propanoic acid

>  <TYPE>  (648) 
Backbone

>  <CLASS>  (648) 
alpha

>  <ANALOG>  (648) 
Ser

>  <MOL_WT>  (648) 
119.11999999999998

>  <LOGP>  (648) 
-1.3487

>  <TPSA>  (648) 
69.56

>  <POPULARITY>  (648) 
25

>  <PROTECTED>  (648) 
TRUE

>  <SMILES>  (648) 
N(C)[C@@H](CO)C(=O)O

>  <INCHIKEY>  (648) 
PSFABYLDRXJYID-VKHMYHEASA-N

$$$$
4-aza-Ac6c
     RDKit          2D

 10 10  0  0  0  0  0  0  0  0999 V2000
    1.1103   -1.5851    0.0000 N   0  0  0  0  0  0  0  0  0  0  0  0
    0.2419   -0.3621    0.0000 C   0  0  0  0  0  0  0  0  0  0  0  0
   -0.8118   -1.4296    0.0000 C   0  0  0  0  0  0  0  0  0  0  0  0
   -2.2632   -1.0509    0.0000 C   0  0  0  0  0  0  0  0  0  0  0  0
   -2.6609    0.3955    0.0000 N   0  0  0  0  0  0  0  0  0  0  0  0
   -1.6072    1.4630    0.0000 C   0  0  0  0  0  0  0  0  0  0  0  0
   -0.1558    1.0843    0.0000 C   0  0  0  0  0  0  0  0  0  0  0  0
    1.5972    0.2807    0.0000 C   0  0  0  0  0  0  0  0  0  0  0  0
    1.7181    1.7758    0.0000 O   0  0  0  0  0  0  0  0  0  0  0  0
    2.8315   -0.5716    0.0000 O   0  0  0  0  0  0  0  0  0  0  0  0
  1  2  1  0
  2  3  1  0
  3  4  1  0
  4  5  1  0
  5  6  1  0
  6  7  1  0
  2  8  1  0
  8  9  2  0
  8 10  1  0
  7  2  1  0
M  END
>  <rName>  (649) 
4-aza-Ac6c

>  <PQ_SYMBOL>  (649) 
4-aza-Ac6c

>  <FULL_NAME>  (649) 
4-PipAmCx, 4-Amino-4-piperidinecarboxylic acid

>  <IUPAC_CONDENSED>  (649) 
4-aza-Ac6c

>  <IUPAC>  (649) 
4-aminopiperidine-4-carboxylic acid

>  <TYPE>  (649) 
Backbone

>  <CLASS>  (649) 
alpha

>  <ANALOG>  (649) 
X

>  <MOL_WT>  (649) 
144.174

>  <LOGP>  (649) 
-0.8481000000000001

>  <TPSA>  (649) 
75.35

>  <POPULARITY>  (649) 
25.9

>  <PROTECTED>  (649) 
TRUE

>  <SMILES>  (649) 
NC1(CCNCC1)C(=O)O

>  <INCHIKEY>  (649) 
KHABBYNLBYZCKP-UHFFFAOYSA-N

$$$$
Phe_34diCl
     RDKit          2D

 14 14  0  0  0  0  0  0  0  0999 V2000
   -2.0094    1.6916    0.0000 N   0  0  0  0  0  0  0  0  0  0  0  0
   -2.3243    0.2250    0.0000 C   0  0  0  0  0  0  0  0  0  0  0  0
   -1.2116   -0.7809    0.0000 C   0  0  0  0  0  0  0  0  0  0  0  0
    0.2159   -0.3203    0.0000 C   0  0  0  0  0  0  0  0  0  0  0  0
    0.5308    1.1463    0.0000 C   0  0  0  0  0  0  0  0  0  0  0  0
    1.9583    1.6069    0.0000 C   0  0  0  0  0  0  0  0  0  0  0  0
    3.0710    0.6009    0.0000 C   0  0  0  0  0  0  0  0  0  0  0  0
    4.4985    1.0615    0.0000 Cl  0  0  0  0  0  0  0  0  0  0  0  0
    2.7561   -0.8657    0.0000 C   0  0  0  0  0  0  0  0  0  0  0  0
    3.8688   -1.8716    0.0000 Cl  0  0  0  0  0  0  0  0  0  0  0  0
    1.3286   -1.3263    0.0000 C   0  0  0  0  0  0  0  0  0  0  0  0
   -3.7518   -0.2356    0.0000 C   0  0  0  0  0  0  0  0  0  0  0  0
   -4.0666   -1.7022    0.0000 O   0  0  0  0  0  0  0  0  0  0  0  0
   -4.8644    0.7704    0.0000 O   0  0  0  0  0  0  0  0  0  0  0  0
  2  1  1  1
  2  3  1  0
  3  4  1  0
  4  5  1  0
  5  6  2  0
  6  7  1  0
  7  8  1  0
  7  9  2  0
  9 10  1  0
  9 11  1  0
  2 12  1  0
 12 13  2  0
 12 14  1  0
 11  4  2  0
M  END
>  <rName>  (650) 
Phe_34diCl

>  <PQ_SYMBOL>  (650) 
Phe_34diCl

>  <FULL_NAME>  (650) 
3,4-Dichloro-L-Phenylalanine

>  <IUPAC_CONDENSED>  (650) 
Phe(3,4-diCl)

>  <IUPAC>  (650) 
(2S)-2-amino-3-(3,4-dichlorophenyl)propanoic acid

>  <TYPE>  (650) 
Backbone

>  <CLASS>  (650) 
alpha

>  <ANALOG>  (650) 
Phe

>  <MOL_WT>  (650) 
234.082

>  <LOGP>  (650) 
1.9478

>  <TPSA>  (650) 
63.32000000000001

>  <POPULARITY>  (650) 
24.6

>  <PROTECTED>  (650) 
TRUE

>  <SMILES>  (650) 
N[C@@H](Cc1(ccc(Cl)c(Cl)c1))C(=O)O

>  <INCHIKEY>  (650) 
NRCSJHVDTAAISV-QMMMGPOBSA-N

$$$$
Arg_Me
     RDKit          2D

 13 12  0  0  0  0  0  0  0  0999 V2000
    2.9765    1.9013    0.0000 N   0  0  0  0  0  0  0  0  0  0  0  0
    2.9164    0.4025    0.0000 C   0  0  0  0  0  0  0  0  0  0  0  0
    1.5883   -0.2947    0.0000 C   0  0  0  0  0  0  0  0  0  0  0  0
    0.3204    0.5068    0.0000 C   0  0  0  0  0  0  0  0  0  0  0  0
   -1.0077   -0.1905    0.0000 C   0  0  0  0  0  0  0  0  0  0  0  0
   -2.2756    0.6110    0.0000 N   0  0  0  0  0  0  0  0  0  0  0  0
   -3.6037   -0.0863    0.0000 C   0  0  0  0  0  0  0  0  0  0  0  0
   -3.6639   -1.5850    0.0000 N   0  0  0  0  0  0  0  0  0  0  0  0
   -4.8716    0.7153    0.0000 N   0  0  0  0  0  0  0  0  0  0  0  0
   -6.1997    0.0180    0.0000 C   0  0  0  0  0  0  0  0  0  0  0  0
    4.1843   -0.3990    0.0000 C   0  0  0  0  0  0  0  0  0  0  0  0
    4.1241   -1.8978    0.0000 O   0  0  0  0  0  0  0  0  0  0  0  0
    5.5123    0.2983    0.0000 O   0  0  0  0  0  0  0  0  0  0  0  0
  2  1  1  6
  2  3  1  0
  3  4  1  0
  4  5  1  0
  5  6  1  0
  6  7  1  0
  7  8  2  0
  7  9  1  0
  9 10  1  0
  2 11  1  0
 11 12  2  0
 11 13  1  0
M  END
>  <rName>  (651) 
Arg_Me

>  <PQ_SYMBOL>  (651) 
Arg_Me

>  <FULL_NAME>  (651) 
N-Monomethyl-L-Arginine, Tilarginine

>  <IUPAC_CONDENSED>  (651) 
Arg(Me)

>  <IUPAC>  (651) 
(2S)-2-amino-5-(((imino)(methylamino)methyl)amino)pentanoic acid

>  <TYPE>  (651) 
Backbone

>  <CLASS>  (651) 
alpha

>  <ANALOG>  (651) 
Arg

>  <MOL_WT>  (651) 
188.231

>  <LOGP>  (651) 
-1.0777299999999987

>  <TPSA>  (651) 
111.23

>  <POPULARITY>  (651) 
33.2

>  <PROTECTED>  (651) 
TRUE

>  <SMILES>  (651) 
N[C@@H](CCCNC(=N)NC)C(=O)O

>  <INCHIKEY>  (651) 
NTNWOCRCBQPEKQ-YFKPBYRVSA-N

$$$$
bAla_3SMe
     RDKit          2D

  7  6  0  0  0  0  0  0  0  0999 V2000
   -1.2990    1.3929    0.0000 N   0  0  0  0  0  0  0  0  0  0  0  0
   -1.2990   -0.1071    0.0000 C   0  0  0  0  0  0  0  0  0  0  0  0
   -2.5981   -0.8571    0.0000 C   0  0  0  0  0  0  0  0  0  0  0  0
    0.0000   -0.8571    0.0000 C   0  0  0  0  0  0  0  0  0  0  0  0
    1.2990   -0.1071    0.0000 C   0  0  0  0  0  0  0  0  0  0  0  0
    1.2990    1.3929    0.0000 O   0  0  0  0  0  0  0  0  0  0  0  0
    2.5981   -0.8571    0.0000 O   0  0  0  0  0  0  0  0  0  0  0  0
  1  2  1  0
  2  3  1  6
  2  4  1  0
  4  5  1  0
  5  6  2  0
  5  7  1  0
M  END
>  <rName>  (652) 
bAla_3SMe

>  <PQ_SYMBOL>  (652) 
bAla_3SMe

>  <FULL_NAME>  (652) 
L-Beta-Homo-Alanine

>  <IUPAC_CONDENSED>  (652) 
bAla(3S-Me)

>  <IUPAC>  (652) 
(3S)-3-aminobutanoic acid

>  <TYPE>  (652) 
Backbone

>  <CLASS>  (652) 
beta

>  <ANALOG>  (652) 
Ala

>  <MOL_WT>  (652) 
103.12099999999998

>  <LOGP>  (652) 
-0.19170000000000004

>  <TPSA>  (652) 
63.32000000000001

>  <POPULARITY>  (652) 
30.5

>  <PROTECTED>  (652) 
TRUE

>  <SMILES>  (652) 
N[C@@H](C)CC(=O)O

>  <INCHIKEY>  (652) 
OQEBBZSWEGYTPG-VKHMYHEASA-N

$$$$
bLeu_R
     RDKit          2D

  9  8  0  0  0  0  0  0  0  0999 V2000
   -0.2826    1.7410    0.0000 N   0  0  0  0  0  0  0  0  0  0  0  0
   -0.5402    0.2633    0.0000 C   0  0  0  0  0  0  0  0  0  0  0  0
   -1.9487   -0.2525    0.0000 C   0  0  0  0  0  0  0  0  0  0  0  0
   -3.0997    0.7094    0.0000 C   0  0  0  0  0  0  0  0  0  0  0  0
   -2.2062   -1.7302    0.0000 C   0  0  0  0  0  0  0  0  0  0  0  0
    0.6108   -0.6986    0.0000 C   0  0  0  0  0  0  0  0  0  0  0  0
    2.0193   -0.1828    0.0000 C   0  0  0  0  0  0  0  0  0  0  0  0
    2.2769    1.2950    0.0000 O   0  0  0  0  0  0  0  0  0  0  0  0
    3.1703   -1.1447    0.0000 O   0  0  0  0  0  0  0  0  0  0  0  0
  2  1  1  6
  2  3  1  0
  3  4  1  0
  3  5  1  0
  2  6  1  0
  6  7  1  0
  7  8  2  0
  7  9  1  0
M  END
>  <rName>  (653) 
bLeu_R

>  <PQ_SYMBOL>  (653) 
bLeu_R

>  <FULL_NAME>  (653) 
L-Beta-Leucine, L-Beta-Homo-Valine

>  <IUPAC_CONDENSED>  (653) 
bLeu(R)

>  <IUPAC>  (653) 
(3R)-3-amino-4-methylpentanoic acid

>  <TYPE>  (653) 
Backbone

>  <CLASS>  (653) 
beta

>  <ANALOG>  (653) 
Val

>  <MOL_WT>  (653) 
131.175

>  <LOGP>  (653) 
0.44439999999999985

>  <TPSA>  (653) 
63.32000000000001

>  <POPULARITY>  (653) 
21.9

>  <PROTECTED>  (653) 
TRUE

>  <SMILES>  (653) 
N[C@@H](C(C)C)CC(=O)O

>  <INCHIKEY>  (653) 
GLUJNGJDHCTUJY-RXMQYKEDSA-N

$$$$
bAla_3SMeNH2
     RDKit          2D

  8  7  0  0  0  0  0  0  0  0999 V2000
   -0.7931    1.4169    0.0000 N   0  0  0  0  0  0  0  0  0  0  0  0
   -0.8131   -0.0829    0.0000 C   0  0  0  0  0  0  0  0  0  0  0  0
   -2.1220   -0.8156    0.0000 C   0  0  0  0  0  0  0  0  0  0  0  0
   -3.4109   -0.0483    0.0000 N   0  0  0  0  0  0  0  0  0  0  0  0
    0.4759   -0.8502    0.0000 C   0  0  0  0  0  0  0  0  0  0  0  0
    1.7848   -0.1175    0.0000 C   0  0  0  0  0  0  0  0  0  0  0  0
    1.8048    1.3823    0.0000 O   0  0  0  0  0  0  0  0  0  0  0  0
    3.0737   -0.8848    0.0000 O   0  0  0  0  0  0  0  0  0  0  0  0
  2  1  1  6
  2  3  1  0
  3  4  1  0
  2  5  1  0
  5  6  1  0
  6  7  2  0
  6  8  1  0
M  END
>  <rName>  (654) 
bAla_3SMeNH2

>  <PQ_SYMBOL>  (654) 
bAla_3SMeNH2

>  <FULL_NAME>  (654) 
(R)-3,4-Diaminobutyric acid

>  <IUPAC_CONDENSED>  (654) 
bAla(3S-MeNH2)

>  <IUPAC>  (654) 
(3R)-3,4-diaminobutanoic acid

>  <TYPE>  (654) 
Backbone

>  <CLASS>  (654) 
beta

>  <ANALOG>  (654) 
X

>  <MOL_WT>  (654) 
118.13599999999998

>  <LOGP>  (654) 
-1.2529

>  <TPSA>  (654) 
89.34

>  <POPULARITY>  (654) 
12

>  <PROTECTED>  (654) 
TRUE

>  <SMILES>  (654) 
N[C@@H](CN)CC(=O)O

>  <INCHIKEY>  (654) 
XQKAYTBBWLDCBB-GSVOUGTGSA-N

$$$$
Phe_2Cl
     RDKit          2D

 13 13  0  0  0  0  0  0  0  0999 V2000
   -1.4864    1.8099    0.0000 N   0  0  0  0  0  0  0  0  0  0  0  0
   -1.7669    0.3364    0.0000 C   0  0  0  0  0  0  0  0  0  0  0  0
   -0.6311   -0.6433    0.0000 C   0  0  0  0  0  0  0  0  0  0  0  0
    0.7853   -0.1495    0.0000 C   0  0  0  0  0  0  0  0  0  0  0  0
    1.0658    1.3241    0.0000 C   0  0  0  0  0  0  0  0  0  0  0  0
    2.4822    1.8179    0.0000 C   0  0  0  0  0  0  0  0  0  0  0  0
    3.6181    0.8382    0.0000 C   0  0  0  0  0  0  0  0  0  0  0  0
    3.3376   -0.6353    0.0000 C   0  0  0  0  0  0  0  0  0  0  0  0
    1.9212   -1.1292    0.0000 C   0  0  0  0  0  0  0  0  0  0  0  0
    1.6407   -2.6027    0.0000 Cl  0  0  0  0  0  0  0  0  0  0  0  0
   -3.1833   -0.1575    0.0000 C   0  0  0  0  0  0  0  0  0  0  0  0
   -3.4638   -1.6310    0.0000 O   0  0  0  0  0  0  0  0  0  0  0  0
   -4.3192    0.8222    0.0000 O   0  0  0  0  0  0  0  0  0  0  0  0
  2  1  1  1
  2  3  1  0
  3  4  1  0
  4  5  2  0
  5  6  1  0
  6  7  2  0
  7  8  1  0
  8  9  2  0
  9 10  1  0
  2 11  1  0
 11 12  2  0
 11 13  1  0
  9  4  1  0
M  END
>  <rName>  (655) 
Phe_2Cl

>  <PQ_SYMBOL>  (655) 
Phe_2Cl

>  <FULL_NAME>  (655) 
2-Chloro-L-Phenylalanine

>  <IUPAC_CONDENSED>  (655) 
Phe(2-Cl)

>  <IUPAC>  (655) 
(2S)-2-amino-3-(2-chlorophenyl)propanoic acid

>  <TYPE>  (655) 
Backbone

>  <CLASS>  (655) 
alpha

>  <ANALOG>  (655) 
Phe

>  <MOL_WT>  (655) 
199.63699999999994

>  <LOGP>  (655) 
1.2944000000000002

>  <TPSA>  (655) 
63.32000000000001

>  <POPULARITY>  (655) 
25.5

>  <PROTECTED>  (655) 
TRUE

>  <SMILES>  (655) 
N[C@@H](Cc1(ccccc1Cl))C(=O)O

>  <INCHIKEY>  (655) 
CVZZNRXMDCOHBG-QMMMGPOBSA-N

$$$$
Phe_3Cl
     RDKit          2D

 13 13  0  0  0  0  0  0  0  0999 V2000
   -1.7680    1.6690    0.0000 N   0  0  0  0  0  0  0  0  0  0  0  0
   -1.9932    0.1860    0.0000 C   0  0  0  0  0  0  0  0  0  0  0  0
   -0.8215   -0.7506    0.0000 C   0  0  0  0  0  0  0  0  0  0  0  0
    0.5754   -0.2041    0.0000 C   0  0  0  0  0  0  0  0  0  0  0  0
    0.8006    1.2789    0.0000 C   0  0  0  0  0  0  0  0  0  0  0  0
    2.1976    1.8254    0.0000 C   0  0  0  0  0  0  0  0  0  0  0  0
    3.3693    0.8888    0.0000 C   0  0  0  0  0  0  0  0  0  0  0  0
    3.1441   -0.5942    0.0000 C   0  0  0  0  0  0  0  0  0  0  0  0
    4.3158   -1.5307    0.0000 Cl  0  0  0  0  0  0  0  0  0  0  0  0
    1.7472   -1.1406    0.0000 C   0  0  0  0  0  0  0  0  0  0  0  0
   -3.3901   -0.3605    0.0000 C   0  0  0  0  0  0  0  0  0  0  0  0
   -3.6153   -1.8435    0.0000 O   0  0  0  0  0  0  0  0  0  0  0  0
   -4.5618    0.5760    0.0000 O   0  0  0  0  0  0  0  0  0  0  0  0
  2  1  1  1
  2  3  1  0
  3  4  1  0
  4  5  2  0
  5  6  1  0
  6  7  2  0
  7  8  1  0
  8  9  1  0
  8 10  2  0
  2 11  1  0
 11 12  2  0
 11 13  1  0
 10  4  1  0
M  END
>  <rName>  (656) 
Phe_3Cl

>  <PQ_SYMBOL>  (656) 
Phe_3Cl

>  <FULL_NAME>  (656) 
3-Chloro-L-Phenylalanine

>  <IUPAC_CONDENSED>  (656) 
Phe(3-Cl)

>  <IUPAC>  (656) 
(2S)-2-amino-3-(3-chlorophenyl)propanoic acid

>  <TYPE>  (656) 
Backbone

>  <CLASS>  (656) 
alpha

>  <ANALOG>  (656) 
Phe

>  <MOL_WT>  (656) 
199.63699999999997

>  <LOGP>  (656) 
1.2944000000000002

>  <TPSA>  (656) 
63.32000000000001

>  <POPULARITY>  (656) 
22.4

>  <PROTECTED>  (656) 
TRUE

>  <SMILES>  (656) 
N[C@@H](Cc1(cccc(Cl)c1))C(=O)O

>  <INCHIKEY>  (656) 
JJDJLFDGCUYZMN-QMMMGPOBSA-N

$$$$
Phe_2CF3
     RDKit          2D

 16 16  0  0  0  0  0  0  0  0999 V2000
   -2.2776    1.9185    0.0000 N   0  0  0  0  0  0  0  0  0  0  0  0
   -2.2125    0.4199    0.0000 C   0  0  0  0  0  0  0  0  0  0  0  0
   -0.8821   -0.2730    0.0000 C   0  0  0  0  0  0  0  0  0  0  0  0
    0.3832    0.5328    0.0000 C   0  0  0  0  0  0  0  0  0  0  0  0
    0.3180    2.0314    0.0000 C   0  0  0  0  0  0  0  0  0  0  0  0
    1.5832    2.8371    0.0000 C   0  0  0  0  0  0  0  0  0  0  0  0
    2.9136    2.1443    0.0000 C   0  0  0  0  0  0  0  0  0  0  0  0
    2.9788    0.6457    0.0000 C   0  0  0  0  0  0  0  0  0  0  0  0
    1.7136   -0.1601    0.0000 C   0  0  0  0  0  0  0  0  0  0  0  0
    1.7787   -1.6586    0.0000 C   0  0  0  0  0  0  0  0  0  0  0  0
    1.8439   -3.1572    0.0000 F   0  0  0  0  0  0  0  0  0  0  0  0
    3.2773   -1.5935    0.0000 F   0  0  0  0  0  0  0  0  0  0  0  0
    0.2802   -1.7238    0.0000 F   0  0  0  0  0  0  0  0  0  0  0  0
   -3.4777   -0.3859    0.0000 C   0  0  0  0  0  0  0  0  0  0  0  0
   -3.4125   -1.8845    0.0000 O   0  0  0  0  0  0  0  0  0  0  0  0
   -4.8081    0.3070    0.0000 O   0  0  0  0  0  0  0  0  0  0  0  0
  2  1  1  1
  2  3  1  0
  3  4  1  0
  4  5  2  0
  5  6  1  0
  6  7  2  0
  7  8  1  0
  8  9  2  0
  9 10  1  0
 10 11  1  0
 10 12  1  0
 10 13  1  0
  2 14  1  0
 14 15  2  0
 14 16  1  0
  9  4  1  0
M  END
>  <rName>  (657) 
Phe_2CF3

>  <PQ_SYMBOL>  (657) 
Phe_2CF3

>  <FULL_NAME>  (657) 
2-Trifluoromethyl-L-Phenylalanine

>  <IUPAC_CONDENSED>  (657) 
Phe(2-CF3)

>  <IUPAC>  (657) 
(2S)-2-amino-3-(2-(trifluoromethyl)phenyl)propanoic acid

>  <TYPE>  (657) 
Backbone

>  <CLASS>  (657) 
alpha

>  <ANALOG>  (657) 
Phe

>  <MOL_WT>  (657) 
233.18899999999994

>  <LOGP>  (657) 
1.6598000000000002

>  <TPSA>  (657) 
63.32000000000001

>  <POPULARITY>  (657) 
6.9

>  <PROTECTED>  (657) 
TRUE

>  <SMILES>  (657) 
N[C@@H](Cc1(ccccc1C(F)(F)F))C(=O)O

>  <INCHIKEY>  (657) 
IOABLDGLYOGEHY-QMMMGPOBSA-N

$$$$
Phe_3CF3
     RDKit          2D

 16 16  0  0  0  0  0  0  0  0999 V2000
   -2.9171    1.6042    0.0000 N   0  0  0  0  0  0  0  0  0  0  0  0
   -2.9225    0.1042    0.0000 C   0  0  0  0  0  0  0  0  0  0  0  0
   -1.6261   -0.6504    0.0000 C   0  0  0  0  0  0  0  0  0  0  0  0
   -0.3244    0.0949    0.0000 C   0  0  0  0  0  0  0  0  0  0  0  0
   -0.3190    1.5949    0.0000 C   0  0  0  0  0  0  0  0  0  0  0  0
    0.9827    2.3402    0.0000 C   0  0  0  0  0  0  0  0  0  0  0  0
    2.2790    1.5856    0.0000 C   0  0  0  0  0  0  0  0  0  0  0  0
    2.2736    0.0856    0.0000 C   0  0  0  0  0  0  0  0  0  0  0  0
    0.9719   -0.6597    0.0000 C   0  0  0  0  0  0  0  0  0  0  0  0
    3.5700   -0.6691    0.0000 C   0  0  0  0  0  0  0  0  0  0  0  0
    4.8663   -1.4237    0.0000 F   0  0  0  0  0  0  0  0  0  0  0  0
    2.8153   -1.9654    0.0000 F   0  0  0  0  0  0  0  0  0  0  0  0
    4.3246    0.6273    0.0000 F   0  0  0  0  0  0  0  0  0  0  0  0
   -4.2242   -0.6411    0.0000 C   0  0  0  0  0  0  0  0  0  0  0  0
   -4.2296   -2.1411    0.0000 O   0  0  0  0  0  0  0  0  0  0  0  0
   -5.5205    0.1136    0.0000 O   0  0  0  0  0  0  0  0  0  0  0  0
  2  1  1  1
  2  3  1  0
  3  4  1  0
  4  5  1  0
  5  6  2  0
  6  7  1  0
  7  8  2  0
  8  9  1  0
  8 10  1  0
 10 11  1  0
 10 12  1  0
 10 13  1  0
  2 14  1  0
 14 15  2  0
 14 16  1  0
  9  4  2  0
M  END
>  <rName>  (658) 
Phe_3CF3

>  <PQ_SYMBOL>  (658) 
Phe_3CF3

>  <FULL_NAME>  (658) 
3-Trifluoromethyl-L-Phenylalanine

>  <IUPAC_CONDENSED>  (658) 
Phe(3-CF3)

>  <IUPAC>  (658) 
(2S)-2-amino-3-(3-(trifluoromethyl)phenyl)propanoic acid

>  <TYPE>  (658) 
Backbone

>  <CLASS>  (658) 
alpha

>  <ANALOG>  (658) 
Phe

>  <MOL_WT>  (658) 
233.18899999999994

>  <LOGP>  (658) 
1.6598000000000002

>  <TPSA>  (658) 
63.32000000000001

>  <POPULARITY>  (658) 
12.5

>  <PROTECTED>  (658) 
TRUE

>  <SMILES>  (658) 
N[C@@H](Cc1(cccc(c1)C(F)(F)F))C(=O)O

>  <INCHIKEY>  (658) 
BURBNIPKSRJAIQ-QMMMGPOBSA-N

$$$$
Phe_4CF3
     RDKit          2D

 16 16  0  0  0  0  0  0  0  0999 V2000
   -2.5021    1.6866    0.0000 N   0  0  0  0  0  0  0  0  0  0  0  0
   -3.0051    0.2735    0.0000 C   0  0  0  0  0  0  0  0  0  0  0  0
   -2.0328   -0.8687    0.0000 C   0  0  0  0  0  0  0  0  0  0  0  0
   -0.5574   -0.5977    0.0000 C   0  0  0  0  0  0  0  0  0  0  0  0
   -0.0545    0.8155    0.0000 C   0  0  0  0  0  0  0  0  0  0  0  0
    1.4208    1.0865    0.0000 C   0  0  0  0  0  0  0  0  0  0  0  0
    2.3932   -0.0557    0.0000 C   0  0  0  0  0  0  0  0  0  0  0  0
    1.8902   -1.4688    0.0000 C   0  0  0  0  0  0  0  0  0  0  0  0
    0.4149   -1.7398    0.0000 C   0  0  0  0  0  0  0  0  0  0  0  0
    3.8685    0.2153    0.0000 C   0  0  0  0  0  0  0  0  0  0  0  0
    5.3438    0.4863    0.0000 F   0  0  0  0  0  0  0  0  0  0  0  0
    4.1395   -1.2600    0.0000 F   0  0  0  0  0  0  0  0  0  0  0  0
    3.5975    1.6906    0.0000 F   0  0  0  0  0  0  0  0  0  0  0  0
   -4.4804    0.0025    0.0000 C   0  0  0  0  0  0  0  0  0  0  0  0
   -4.9834   -1.4107    0.0000 O   0  0  0  0  0  0  0  0  0  0  0  0
   -5.4528    1.1446    0.0000 O   0  0  0  0  0  0  0  0  0  0  0  0
  2  1  1  1
  2  3  1  0
  3  4  1  0
  4  5  1  0
  5  6  2  0
  6  7  1  0
  7  8  2  0
  8  9  1  0
  7 10  1  0
 10 11  1  0
 10 12  1  0
 10 13  1  0
  2 14  1  0
 14 15  2  0
 14 16  1  0
  9  4  2  0
M  END
>  <rName>  (659) 
Phe_4CF3

>  <PQ_SYMBOL>  (659) 
Phe_4CF3

>  <FULL_NAME>  (659) 
4-Trifluoromethyl-L-Phenylalanine

>  <IUPAC_CONDENSED>  (659) 
Phe(4-CF3)

>  <IUPAC>  (659) 
(2S)-2-amino-3-(4-(trifluoromethyl)phenyl)propanoic acid

>  <TYPE>  (659) 
Backbone

>  <CLASS>  (659) 
alpha

>  <ANALOG>  (659) 
Phe

>  <MOL_WT>  (659) 
233.18899999999994

>  <LOGP>  (659) 
1.6598000000000002

>  <TPSA>  (659) 
63.32000000000001

>  <POPULARITY>  (659) 
19

>  <PROTECTED>  (659) 
TRUE

>  <SMILES>  (659) 
N[C@@H](Cc1(ccc(cc1)C(F)(F)F))C(=O)O

>  <INCHIKEY>  (659) 
CRFFPDBJLGAGQL-QMMMGPOBSA-N

$$$$
Arg_Me2
     RDKit          2D

 14 13  0  0  0  0  0  0  0  0999 V2000
    3.2228   -1.9173    0.0000 N   0  0  0  0  0  0  0  0  0  0  0  0
    3.2424   -0.4174    0.0000 C   0  0  0  0  0  0  0  0  0  0  0  0
    1.9533    0.3495    0.0000 C   0  0  0  0  0  0  0  0  0  0  0  0
    0.6446   -0.3835    0.0000 C   0  0  0  0  0  0  0  0  0  0  0  0
   -0.6446    0.3835    0.0000 C   0  0  0  0  0  0  0  0  0  0  0  0
   -1.9533   -0.3495    0.0000 N   0  0  0  0  0  0  0  0  0  0  0  0
   -3.2424    0.4174    0.0000 C   0  0  0  0  0  0  0  0  0  0  0  0
   -3.2228    1.9173    0.0000 N   0  0  0  0  0  0  0  0  0  0  0  0
   -4.5511   -0.3155    0.0000 N   0  0  0  0  0  0  0  0  0  0  0  0
   -5.8403    0.4514    0.0000 C   0  0  0  0  0  0  0  0  0  0  0  0
   -4.5708   -1.8154    0.0000 C   0  0  0  0  0  0  0  0  0  0  0  0
    4.5511    0.3155    0.0000 C   0  0  0  0  0  0  0  0  0  0  0  0
    4.5708    1.8154    0.0000 O   0  0  0  0  0  0  0  0  0  0  0  0
    5.8403   -0.4514    0.0000 O   0  0  0  0  0  0  0  0  0  0  0  0
  2  1  1  1
  2  3  1  0
  3  4  1  0
  4  5  1  0
  5  6  1  0
  6  7  1  0
  7  8  2  0
  7  9  1  0
  9 10  1  0
  9 11  1  0
  2 12  1  0
 12 13  2  0
 12 14  1  0
M  END
>  <rName>  (660) 
Arg_Me2

>  <PQ_SYMBOL>  (660) 
Arg_Me2

>  <FULL_NAME>  (660) 
NG,NG-Dimethyl-L-Arginine

>  <IUPAC_CONDENSED>  (660) 
Arg(Me2)

>  <IUPAC>  (660) 
(2S)-2-amino-5-(((dimethylamino)(imino)methyl)amino)pentanoic acid

>  <TYPE>  (660) 
Backbone

>  <CLASS>  (660) 
alpha

>  <ANALOG>  (660) 
Arg

>  <MOL_WT>  (660) 
202.258

>  <LOGP>  (660) 
-0.7355299999999985

>  <TPSA>  (660) 
102.44000000000001

>  <POPULARITY>  (660) 
24.3

>  <PROTECTED>  (660) 
TRUE

>  <SMILES>  (660) 
N[C@@H](CCCNC(=N)N(C)C)C(=O)O

>  <INCHIKEY>  (660) 
YDGMGEXADBMOMJ-LURJTMIESA-N

$$$$
Phe_4MeNH2
     RDKit          2D

 14 14  0  0  0  0  0  0  0  0999 V2000
   -2.0397    1.6757    0.0000 N   0  0  0  0  0  0  0  0  0  0  0  0
   -2.4395    0.2299    0.0000 C   0  0  0  0  0  0  0  0  0  0  0  0
   -1.3873   -0.8392    0.0000 C   0  0  0  0  0  0  0  0  0  0  0  0
    0.0646   -0.4625    0.0000 C   0  0  0  0  0  0  0  0  0  0  0  0
    0.4644    0.9832    0.0000 C   0  0  0  0  0  0  0  0  0  0  0  0
    1.9164    1.3598    0.0000 C   0  0  0  0  0  0  0  0  0  0  0  0
    2.9685    0.2907    0.0000 C   0  0  0  0  0  0  0  0  0  0  0  0
    2.5687   -1.1550    0.0000 C   0  0  0  0  0  0  0  0  0  0  0  0
    1.1168   -1.5316    0.0000 C   0  0  0  0  0  0  0  0  0  0  0  0
    4.4205    0.6674    0.0000 C   0  0  0  0  0  0  0  0  0  0  0  0
    5.4726   -0.4017    0.0000 N   0  0  0  0  0  0  0  0  0  0  0  0
   -3.8914   -0.1467    0.0000 C   0  0  0  0  0  0  0  0  0  0  0  0
   -4.2912   -1.5924    0.0000 O   0  0  0  0  0  0  0  0  0  0  0  0
   -4.9436    0.9224    0.0000 O   0  0  0  0  0  0  0  0  0  0  0  0
  2  1  1  1
  2  3  1  0
  3  4  1  0
  4  5  1  0
  5  6  2  0
  6  7  1  0
  7  8  2  0
  8  9  1  0
  7 10  1  0
 10 11  1  0
  2 12  1  0
 12 13  2  0
 12 14  1  0
  9  4  2  0
M  END
>  <rName>  (661) 
Phe_4MeNH2

>  <PQ_SYMBOL>  (661) 
Phe_4MeNH2

>  <FULL_NAME>  (661) 
4-(Aminomethyl)-L-Phenylalanine

>  <IUPAC_CONDENSED>  (661) 
Phe(4-MeNH2)

>  <IUPAC>  (661) 
(2S)-2-amino-3-(4-(aminomethyl)phenyl)propanoic acid

>  <TYPE>  (661) 
Backbone

>  <CLASS>  (661) 
alpha

>  <ANALOG>  (661) 
Phe

>  <MOL_WT>  (661) 
194.23399999999995

>  <LOGP>  (661) 
0.09970000000000018

>  <TPSA>  (661) 
89.34

>  <POPULARITY>  (661) 
13.7

>  <PROTECTED>  (661) 
TRUE

>  <SMILES>  (661) 
N[C@@H](Cc1(ccc(cc1)CN))C(=O)O

>  <INCHIKEY>  (661) 
GNVNKFUEUXUWDV-VIFPVBQESA-N

$$$$
Idc
     RDKit          2D

 12 13  0  0  0  0  0  0  0  0999 V2000
   -0.5689    1.2135    0.0000 N   0  0  0  0  0  0  0  0  0  0  0  0
   -1.4506   -0.0000    0.0000 C   0  0  0  0  0  0  0  0  0  0  0  0
   -0.5689   -1.2135    0.0000 C   0  0  0  0  0  0  0  0  0  0  0  0
    0.8577   -0.7500    0.0000 C   0  0  0  0  0  0  0  0  0  0  0  0
    2.1567   -1.5000    0.0000 C   0  0  0  0  0  0  0  0  0  0  0  0
    3.4557   -0.7500    0.0000 C   0  0  0  0  0  0  0  0  0  0  0  0
    3.4557    0.7500    0.0000 C   0  0  0  0  0  0  0  0  0  0  0  0
    2.1567    1.5000    0.0000 C   0  0  0  0  0  0  0  0  0  0  0  0
    0.8577    0.7500    0.0000 C   0  0  0  0  0  0  0  0  0  0  0  0
   -2.9506   -0.0000    0.0000 C   0  0  0  0  0  0  0  0  0  0  0  0
   -3.7006   -1.2990    0.0000 O   0  0  0  0  0  0  0  0  0  0  0  0
   -3.7006    1.2990    0.0000 O   0  0  0  0  0  0  0  0  0  0  0  0
  1  2  1  0
  2  3  1  0
  3  4  1  0
  4  5  2  0
  5  6  1  0
  6  7  2  0
  7  8  1  0
  8  9  2  0
  2 10  1  1
 10 11  2  0
 10 12  1  0
  9  1  1  0
  9  4  1  0
M  END
>  <rName>  (662) 
Idc

>  <PQ_SYMBOL>  (662) 
Idc

>  <FULL_NAME>  (662) 
L-Indoline-2-carboxylic acid

>  <IUPAC_CONDENSED>  (662) 
Idc

>  <IUPAC>  (662) 
(2S)-indoline-2-carboxylic acid

>  <TYPE>  (662) 
Backbone

>  <CLASS>  (662) 
alpha

>  <ANALOG>  (662) 
Pro

>  <MOL_WT>  (662) 
163.17599999999996

>  <LOGP>  (662) 
1.1078000000000001

>  <TPSA>  (662) 
49.33

>  <POPULARITY>  (662) 
20.6

>  <PROTECTED>  (662) 
TRUE

>  <SMILES>  (662) 
N1[C@@H](Cc2(ccccc12))C(=O)O

>  <INCHIKEY>  (662) 
QNRXNRGSOJZINA-QMMMGPOBSA-N

$$$$
aMePro
     RDKit          2D

  9  9  0  0  0  0  0  0  0  0999 V2000
   -0.4885   -1.0777    0.0000 N   0  0  0  0  0  0  0  0  0  0  0  0
   -0.0160    0.3460    0.0000 C   0  0  0  0  0  0  0  0  0  0  0  0
    0.7422    1.6403    0.0000 C   0  0  0  0  0  0  0  0  0  0  0  0
   -1.2239    1.2353    0.0000 C   0  0  0  0  0  0  0  0  0  0  0  0
   -2.4430    0.3613    0.0000 C   0  0  0  0  0  0  0  0  0  0  0  0
   -1.9885   -1.0682    0.0000 C   0  0  0  0  0  0  0  0  0  0  0  0
    1.3504   -0.2728    0.0000 C   0  0  0  0  0  0  0  0  0  0  0  0
    2.5695    0.6013    0.0000 O   0  0  0  0  0  0  0  0  0  0  0  0
    1.4978   -1.7655    0.0000 O   0  0  0  0  0  0  0  0  0  0  0  0
  1  2  1  0
  2  3  1  6
  2  4  1  0
  4  5  1  0
  5  6  1  0
  2  7  1  0
  7  8  2  0
  7  9  1  0
  6  1  1  0
M  END
>  <rName>  (663) 
aMePro

>  <PQ_SYMBOL>  (663) 
aMePro

>  <FULL_NAME>  (663) 
2-Methyl-L-Proline

>  <IUPAC_CONDENSED>  (663) 
aMePro

>  <IUPAC>  (663) 
(2S)-2-methylpyrrolidine-2-carboxylic acid

>  <TYPE>  (663) 
Backbone

>  <CLASS>  (663) 
alpha

>  <ANALOG>  (663) 
Pro

>  <MOL_WT>  (663) 
129.15900000000002

>  <LOGP>  (663) 
0.2131

>  <TPSA>  (663) 
49.33

>  <POPULARITY>  (663) 
19.7

>  <PROTECTED>  (663) 
TRUE

>  <SMILES>  (663) 
N1[C@@](C)(CCC1)C(=O)O

>  <INCHIKEY>  (663) 
LWHHAVWYGIBIEU-LURJTMIESA-N

$$$$
aMeLeu
     RDKit          2D

 10  9  0  0  0  0  0  0  0  0999 V2000
    0.5181    1.5297    0.0000 N   0  0  0  0  0  0  0  0  0  0  0  0
   -0.5678    0.4949    0.0000 C   0  0  0  0  0  0  0  0  0  0  0  0
   -1.6026    1.5808    0.0000 C   0  0  0  0  0  0  0  0  0  0  0  0
    0.4670   -0.5910    0.0000 C   0  0  0  0  0  0  0  0  0  0  0  0
    1.9248   -0.2377    0.0000 C   0  0  0  0  0  0  0  0  0  0  0  0
    2.9596   -1.3236    0.0000 C   0  0  0  0  0  0  0  0  0  0  0  0
    2.3478    1.2014    0.0000 C   0  0  0  0  0  0  0  0  0  0  0  0
   -1.6537   -0.5399    0.0000 C   0  0  0  0  0  0  0  0  0  0  0  0
   -3.0928   -0.1169    0.0000 O   0  0  0  0  0  0  0  0  0  0  0  0
   -1.3005   -1.9977    0.0000 O   0  0  0  0  0  0  0  0  0  0  0  0
  1  2  1  0
  2  3  1  6
  2  4  1  0
  4  5  1  0
  5  6  1  0
  5  7  1  0
  2  8  1  0
  8  9  2  0
  8 10  1  0
M  END
>  <rName>  (664) 
aMeLeu

>  <PQ_SYMBOL>  (664) 
aMeLeu

>  <FULL_NAME>  (664) 
2-Methyl-L-Leucine

>  <IUPAC_CONDENSED>  (664) 
aMeLeu

>  <IUPAC>  (664) 
(2S)-2-amino-2,4-dimethylpentanoic acid

>  <TYPE>  (664) 
Backbone

>  <CLASS>  (664) 
alpha

>  <ANALOG>  (664) 
Leu

>  <MOL_WT>  (664) 
145.202

>  <LOGP>  (664) 
0.8344999999999998

>  <TPSA>  (664) 
63.32000000000001

>  <POPULARITY>  (664) 
31.5

>  <PROTECTED>  (664) 
TRUE

>  <SMILES>  (664) 
N[C@@](C)(CC(C)C)C(=O)O

>  <INCHIKEY>  (664) 
ARSWQPLPYROOBG-ZETCQYMHSA-N

$$$$
NMe-L
     RDKit          2D

 10  9  0  0  0  0  0  0  0  0999 V2000
   -1.8138    1.4604    0.0000 N   0  0  0  0  0  0  0  0  0  0  0  0
   -3.1802    0.8418    0.0000 C   0  0  0  0  0  0  0  0  0  0  0  0
   -0.5948    0.5863    0.0000 C   0  0  0  0  0  0  0  0  0  0  0  0
    0.7717    1.2050    0.0000 C   0  0  0  0  0  0  0  0  0  0  0  0
    1.9907    0.3309    0.0000 C   0  0  0  0  0  0  0  0  0  0  0  0
    3.3572    0.9495    0.0000 C   0  0  0  0  0  0  0  0  0  0  0  0
    1.8433   -1.1619    0.0000 C   0  0  0  0  0  0  0  0  0  0  0  0
   -0.7422   -0.9064    0.0000 C   0  0  0  0  0  0  0  0  0  0  0  0
   -2.1087   -1.5251    0.0000 O   0  0  0  0  0  0  0  0  0  0  0  0
    0.4768   -1.7805    0.0000 O   0  0  0  0  0  0  0  0  0  0  0  0
  1  2  1  0
  1  3  1  0
  3  4  1  1
  4  5  1  0
  5  6  1  0
  5  7  1  0
  3  8  1  0
  8  9  2  0
  8 10  1  0
M  END
>  <rName>  (665) 
NMe-L

>  <PQ_SYMBOL>  (665) 
NMe-L

>  <FULL_NAME>  (665) 
N-Methyl-L-Leucine

>  <IUPAC_CONDENSED>  (665) 
Me-Leu

>  <IUPAC>  (665) 
(2S)-4-methyl-2-(methylamino)pentanoic acid

>  <TYPE>  (665) 
Backbone

>  <CLASS>  (665) 
alpha

>  <ANALOG>  (665) 
Leu

>  <MOL_WT>  (665) 
145.202

>  <LOGP>  (665) 
0.7051000000000001

>  <TPSA>  (665) 
49.33

>  <POPULARITY>  (665) 
55.4

>  <PROTECTED>  (665) 
TRUE

>  <SMILES>  (665) 
N(C)[C@@H](CC(C)C)C(=O)O

>  <INCHIKEY>  (665) 
XJODGRWDFZVTKW-LURJTMIESA-N

$$$$
Lys_nicotinoyl
     RDKit          2D

 18 18  0  0  0  0  0  0  0  0999 V2000
   -5.2698   -1.7320    0.0000 N   0  0  0  0  0  0  0  0  0  0  0  0
   -5.1566   -0.2362    0.0000 C   0  0  0  0  0  0  0  0  0  0  0  0
   -3.8046    0.4135    0.0000 C   0  0  0  0  0  0  0  0  0  0  0  0
   -2.5659   -0.4325    0.0000 C   0  0  0  0  0  0  0  0  0  0  0  0
   -1.2139    0.2173    0.0000 C   0  0  0  0  0  0  0  0  0  0  0  0
    0.0248   -0.6287    0.0000 C   0  0  0  0  0  0  0  0  0  0  0  0
    1.3767    0.0211    0.0000 N   0  0  0  0  0  0  0  0  0  0  0  0
    2.6154   -0.8249    0.0000 C   0  0  0  0  0  0  0  0  0  0  0  0
    2.5021   -2.3206    0.0000 O   0  0  0  0  0  0  0  0  0  0  0  0
    3.9674   -0.1751    0.0000 C   0  0  0  0  0  0  0  0  0  0  0  0
    4.0807    1.3206    0.0000 C   0  0  0  0  0  0  0  0  0  0  0  0
    5.4326    1.9703    0.0000 C   0  0  0  0  0  0  0  0  0  0  0  0
    6.6713    1.1244    0.0000 C   0  0  0  0  0  0  0  0  0  0  0  0
    6.5580   -0.3713    0.0000 N   0  0  0  0  0  0  0  0  0  0  0  0
    5.2061   -1.0211    0.0000 C   0  0  0  0  0  0  0  0  0  0  0  0
   -6.3952    0.6097    0.0000 C   0  0  0  0  0  0  0  0  0  0  0  0
   -6.2820    2.1054    0.0000 O   0  0  0  0  0  0  0  0  0  0  0  0
   -7.7472   -0.0400    0.0000 O   0  0  0  0  0  0  0  0  0  0  0  0
  2  1  1  6
  2  3  1  0
  3  4  1  0
  4  5  1  0
  5  6  1  0
  6  7  1  0
  7  8  1  0
  8  9  2  0
  8 10  1  0
 10 11  2  0
 11 12  1  0
 12 13  2  0
 13 14  1  0
 14 15  2  0
  2 16  1  0
 16 17  2  0
 16 18  1  0
 15 10  1  0
M  END
>  <rName>  (666) 
Lys_nicotinoyl

>  <PQ_SYMBOL>  (666) 
Lys_nicotinoyl

>  <FULL_NAME>  (666) 
N6-(3-Pyridinylcarbonyl)-L-Lysine

>  <IUPAC_CONDENSED>  (666) 
Lys(nicotinoyl)

>  <IUPAC>  (666) 
(2S)-2-amino-6-(pyridin-3-ylcarbonylamino)hexanoic acid

>  <TYPE>  (666) 
Backbone

>  <CLASS>  (666) 
alpha

>  <ANALOG>  (666) 
Lys

>  <MOL_WT>  (666) 
251.28600000000003

>  <LOGP>  (666) 
0.39359999999999906

>  <TPSA>  (666) 
105.30999999999999

>  <POPULARITY>  (666) 
7.8

>  <PROTECTED>  (666) 
TRUE

>  <SMILES>  (666) 
N[C@@H](CCCCNC(=O)c1(cccnc1))C(=O)O

>  <INCHIKEY>  (666) 
GPGQRQZBZHOSJY-JTQLQIEISA-N

$$$$
bAla_3SBn
     RDKit          2D

 13 13  0  0  0  0  0  0  0  0999 V2000
   -0.9767    1.2065    0.0000 N   0  0  0  0  0  0  0  0  0  0  0  0
   -1.1358   -0.2850    0.0000 C   0  0  0  0  0  0  0  0  0  0  0  0
    0.0764   -1.1685    0.0000 C   0  0  0  0  0  0  0  0  0  0  0  0
    1.4476   -0.5605    0.0000 C   0  0  0  0  0  0  0  0  0  0  0  0
    1.6067    0.9310    0.0000 C   0  0  0  0  0  0  0  0  0  0  0  0
    2.9779    1.5390    0.0000 C   0  0  0  0  0  0  0  0  0  0  0  0
    4.1901    0.6555    0.0000 C   0  0  0  0  0  0  0  0  0  0  0  0
    4.0310   -0.8361    0.0000 C   0  0  0  0  0  0  0  0  0  0  0  0
    2.6598   -1.4441    0.0000 C   0  0  0  0  0  0  0  0  0  0  0  0
   -2.5071   -0.8930    0.0000 C   0  0  0  0  0  0  0  0  0  0  0  0
   -3.7192   -0.0095    0.0000 C   0  0  0  0  0  0  0  0  0  0  0  0
   -3.5602    1.4821    0.0000 O   0  0  0  0  0  0  0  0  0  0  0  0
   -5.0905   -0.6175    0.0000 O   0  0  0  0  0  0  0  0  0  0  0  0
  2  1  1  1
  2  3  1  0
  3  4  1  0
  4  5  2  0
  5  6  1  0
  6  7  2  0
  7  8  1  0
  8  9  2  0
  2 10  1  0
 10 11  1  0
 11 12  2  0
 11 13  1  0
  9  4  1  0
M  END
>  <rName>  (667) 
bAla_3SBn

>  <PQ_SYMBOL>  (667) 
bAla_3SBn

>  <FULL_NAME>  (667) 
L-beta-Homophenylalanine

>  <IUPAC_CONDENSED>  (667) 
bAla(3S-Bn)

>  <IUPAC>  (667) 
(3S)-3-amino-4-phenylbutanoic acid

>  <TYPE>  (667) 
Backbone

>  <CLASS>  (667) 
beta

>  <ANALOG>  (667) 
Phe

>  <MOL_WT>  (667) 
179.21899999999994

>  <LOGP>  (667) 
1.0311000000000001

>  <TPSA>  (667) 
63.32000000000001

>  <POPULARITY>  (667) 
11.7

>  <PROTECTED>  (667) 
TRUE

>  <SMILES>  (667) 
N[C@@H](Cc1(ccccc1))CC(=O)O

>  <INCHIKEY>  (667) 
OFVBLKINTLPEGH-VIFPVBQESA-N

$$$$
Phe_4OBn
     RDKit          2D

 20 21  0  0  0  0  0  0  0  0999 V2000
   -4.5045    1.7035    0.0000 N   0  0  0  0  0  0  0  0  0  0  0  0
   -4.9466    0.2701    0.0000 C   0  0  0  0  0  0  0  0  0  0  0  0
   -3.9264   -0.8295    0.0000 C   0  0  0  0  0  0  0  0  0  0  0  0
   -2.4640   -0.4957    0.0000 C   0  0  0  0  0  0  0  0  0  0  0  0
   -2.0218    0.9376    0.0000 C   0  0  0  0  0  0  0  0  0  0  0  0
   -0.5594    1.2714    0.0000 C   0  0  0  0  0  0  0  0  0  0  0  0
    0.4608    0.1718    0.0000 C   0  0  0  0  0  0  0  0  0  0  0  0
    1.9232    0.5056    0.0000 O   0  0  0  0  0  0  0  0  0  0  0  0
    2.9435   -0.5940    0.0000 C   0  0  0  0  0  0  0  0  0  0  0  0
    4.4059   -0.2603    0.0000 C   0  0  0  0  0  0  0  0  0  0  0  0
    5.4261   -1.3599    0.0000 C   0  0  0  0  0  0  0  0  0  0  0  0
    6.8885   -1.0261    0.0000 C   0  0  0  0  0  0  0  0  0  0  0  0
    7.3307    0.4072    0.0000 C   0  0  0  0  0  0  0  0  0  0  0  0
    6.3104    1.5068    0.0000 C   0  0  0  0  0  0  0  0  0  0  0  0
    4.8480    1.1731    0.0000 C   0  0  0  0  0  0  0  0  0  0  0  0
    0.0187   -1.2616    0.0000 C   0  0  0  0  0  0  0  0  0  0  0  0
   -1.4437   -1.5953    0.0000 C   0  0  0  0  0  0  0  0  0  0  0  0
   -6.4090   -0.0637    0.0000 C   0  0  0  0  0  0  0  0  0  0  0  0
   -6.8512   -1.4970    0.0000 O   0  0  0  0  0  0  0  0  0  0  0  0
   -7.4292    1.0359    0.0000 O   0  0  0  0  0  0  0  0  0  0  0  0
  2  1  1  1
  2  3  1  0
  3  4  1  0
  4  5  1  0
  5  6  2  0
  6  7  1  0
  7  8  1  0
  8  9  1  0
  9 10  1  0
 10 11  2  0
 11 12  1  0
 12 13  2  0
 13 14  1  0
 14 15  2  0
  7 16  2  0
 16 17  1  0
  2 18  1  0
 18 19  2  0
 18 20  1  0
 15 10  1  0
 17  4  2  0
M  END
>  <rName>  (668) 
Phe_4OBn

>  <PQ_SYMBOL>  (668) 
Phe_4OBn

>  <FULL_NAME>  (668) 
O-Benzyl-L-Tyrosine

>  <IUPAC_CONDENSED>  (668) 
Tyr(Bn)

>  <IUPAC>  (668) 
(2S)-2-amino-3-(4-benzyloxyphenyl)propanoic acid

>  <TYPE>  (668) 
Backbone

>  <CLASS>  (668) 
alpha

>  <ANALOG>  (668) 
Tyr

>  <MOL_WT>  (668) 
271.316

>  <LOGP>  (668) 
2.22

>  <TPSA>  (668) 
72.55

>  <POPULARITY>  (668) 
26.2

>  <PROTECTED>  (668) 
TRUE

>  <SMILES>  (668) 
N[C@@H](Cc2(ccc(OCc1(ccccc1))cc2))C(=O)O

>  <INCHIKEY>  (668) 
KAFHLONDOVSENM-HNNXBMFYSA-N

$$$$
Phe_4guanidino
     RDKit          2D

 16 16  0  0  0  0  0  0  0  0999 V2000
   -2.8646    1.6700    0.0000 N   0  0  0  0  0  0  0  0  0  0  0  0
   -3.2013    0.2083    0.0000 C   0  0  0  0  0  0  0  0  0  0  0  0
   -2.1038   -0.8141    0.0000 C   0  0  0  0  0  0  0  0  0  0  0  0
   -0.6696   -0.3749    0.0000 C   0  0  0  0  0  0  0  0  0  0  0  0
   -0.3329    1.0868    0.0000 C   0  0  0  0  0  0  0  0  0  0  0  0
    1.1014    1.5261    0.0000 C   0  0  0  0  0  0  0  0  0  0  0  0
    2.1989    0.5036    0.0000 C   0  0  0  0  0  0  0  0  0  0  0  0
    1.8622   -0.9581    0.0000 C   0  0  0  0  0  0  0  0  0  0  0  0
    0.4280   -1.3974    0.0000 C   0  0  0  0  0  0  0  0  0  0  0  0
    3.6332    0.9429    0.0000 N   0  0  0  0  0  0  0  0  0  0  0  0
    4.7307   -0.0796    0.0000 C   0  0  0  0  0  0  0  0  0  0  0  0
    4.3940   -1.5413    0.0000 N   0  0  0  0  0  0  0  0  0  0  0  0
    6.1649    0.3597    0.0000 N   0  0  0  0  0  0  0  0  0  0  0  0
   -4.6356   -0.2309    0.0000 C   0  0  0  0  0  0  0  0  0  0  0  0
   -4.9723   -1.6927    0.0000 O   0  0  0  0  0  0  0  0  0  0  0  0
   -5.7331    0.7915    0.0000 O   0  0  0  0  0  0  0  0  0  0  0  0
  2  1  1  1
  2  3  1  0
  3  4  1  0
  4  5  1  0
  5  6  2  0
  6  7  1  0
  7  8  2  0
  8  9  1  0
  7 10  1  0
 10 11  1  0
 11 12  2  0
 11 13  1  0
  2 14  1  0
 14 15  2  0
 14 16  1  0
  9  4  2  0
M  END
>  <rName>  (669) 
Phe_4guanidino

>  <PQ_SYMBOL>  (669) 
Phe_4guanidino

>  <FULL_NAME>  (669) 
4-Guanidino-L-Phenylalanine

>  <IUPAC_CONDENSED>  (669) 
Phe(4-guanidino)

>  <IUPAC>  (669) 
(2S)-2-amino-3-(4-(((amino)(imino)methyl)amino)phenyl)propanoic acid

>  <TYPE>  (669) 
Backbone

>  <CLASS>  (669) 
alpha

>  <ANALOG>  (669) 
Phe

>  <MOL_WT>  (669) 
222.24799999999996

>  <LOGP>  (669) 
-0.05363000000000029

>  <TPSA>  (669) 
125.22000000000001

>  <POPULARITY>  (669) 
17

>  <PROTECTED>  (669) 
TRUE

>  <SMILES>  (669) 
N[C@@H](Cc1(ccc(cc1)NC(=N)N))C(=O)O

>  <INCHIKEY>  (669) 
FYMNTAQFDTZISY-QMMMGPOBSA-N

$$$$
Lys_iPr
     RDKit          2D

 13 12  0  0  0  0  0  0  0  0999 V2000
    2.9072   -1.8790    0.0000 N   0  0  0  0  0  0  0  0  0  0  0  0
    2.9824   -0.3808    0.0000 C   0  0  0  0  0  0  0  0  0  0  0  0
    1.7226    0.4334    0.0000 C   0  0  0  0  0  0  0  0  0  0  0  0
    0.3876   -0.2505    0.0000 C   0  0  0  0  0  0  0  0  0  0  0  0
   -0.8722    0.5637    0.0000 C   0  0  0  0  0  0  0  0  0  0  0  0
   -2.2072   -0.1202    0.0000 C   0  0  0  0  0  0  0  0  0  0  0  0
   -3.4670    0.6940    0.0000 N   0  0  0  0  0  0  0  0  0  0  0  0
   -4.8020    0.0101    0.0000 C   0  0  0  0  0  0  0  0  0  0  0  0
   -6.0618    0.8243    0.0000 C   0  0  0  0  0  0  0  0  0  0  0  0
   -4.8772   -1.4880    0.0000 C   0  0  0  0  0  0  0  0  0  0  0  0
    4.3175    0.3030    0.0000 C   0  0  0  0  0  0  0  0  0  0  0  0
    4.3927    1.8012    0.0000 O   0  0  0  0  0  0  0  0  0  0  0  0
    5.5772   -0.5112    0.0000 O   0  0  0  0  0  0  0  0  0  0  0  0
  2  1  1  1
  2  3  1  0
  3  4  1  0
  4  5  1  0
  5  6  1  0
  6  7  1  0
  7  8  1  0
  8  9  1  0
  8 10  1  0
  2 11  1  0
 11 12  2  0
 11 13  1  0
M  END
>  <rName>  (670) 
Lys_iPr

>  <PQ_SYMBOL>  (670) 
Lys_iPr

>  <FULL_NAME>  (670) 
N6-Isopropyl-L-Lysine

>  <IUPAC_CONDENSED>  (670) 
Lys(iPr)

>  <IUPAC>  (670) 
(2S)-2-amino-6-((propan-2-yl)amino)hexanoic acid

>  <TYPE>  (670) 
Backbone

>  <CLASS>  (670) 
alpha

>  <ANALOG>  (670) 
Lys

>  <MOL_WT>  (670) 
188.271

>  <LOGP>  (670) 
0.5665999999999998

>  <TPSA>  (670) 
75.35

>  <POPULARITY>  (670) 
21

>  <PROTECTED>  (670) 
TRUE

>  <SMILES>  (670) 
N[C@@H](CCCCNC(C)C)C(=O)O

>  <INCHIKEY>  (670) 
CBAWNLIZBXJSFS-QMMMGPOBSA-N

$$$$
Nva_Ph
     RDKit          2D

 14 14  0  0  0  0  0  0  0  0999 V2000
   -2.7125    1.8435    0.0000 N   0  0  0  0  0  0  0  0  0  0  0  0
   -2.9490    0.3623    0.0000 C   0  0  0  0  0  0  0  0  0  0  0  0
   -1.7844   -0.5831    0.0000 C   0  0  0  0  0  0  0  0  0  0  0  0
   -0.3834   -0.0473    0.0000 C   0  0  0  0  0  0  0  0  0  0  0  0
    0.7812   -0.9927    0.0000 C   0  0  0  0  0  0  0  0  0  0  0  0
    2.1822   -0.4569    0.0000 C   0  0  0  0  0  0  0  0  0  0  0  0
    2.4187    1.0244    0.0000 C   0  0  0  0  0  0  0  0  0  0  0  0
    3.8197    1.5602    0.0000 C   0  0  0  0  0  0  0  0  0  0  0  0
    4.9842    0.6148    0.0000 C   0  0  0  0  0  0  0  0  0  0  0  0
    4.7478   -0.8664    0.0000 C   0  0  0  0  0  0  0  0  0  0  0  0
    3.3467   -1.4023    0.0000 C   0  0  0  0  0  0  0  0  0  0  0  0
   -4.3500   -0.1735    0.0000 C   0  0  0  0  0  0  0  0  0  0  0  0
   -4.5865   -1.6548    0.0000 O   0  0  0  0  0  0  0  0  0  0  0  0
   -5.5146    0.7719    0.0000 O   0  0  0  0  0  0  0  0  0  0  0  0
  2  1  1  1
  2  3  1  0
  3  4  1  0
  4  5  1  0
  5  6  1  0
  6  7  2  0
  7  8  1  0
  8  9  2  0
  9 10  1  0
 10 11  2  0
  2 12  1  0
 12 13  2  0
 12 14  1  0
 11  6  1  0
M  END
>  <rName>  (671) 
Nva_Ph

>  <PQ_SYMBOL>  (671) 
Nva_Ph

>  <FULL_NAME>  (671) 
5-Phenyl-L-Norvaline

>  <IUPAC_CONDENSED>  (671) 
Nva(Ph)

>  <IUPAC>  (671) 
(2S)-2-amino-5-phenylpentanoic acid

>  <TYPE>  (671) 
Backbone

>  <CLASS>  (671) 
alpha

>  <ANALOG>  (671) 
X

>  <MOL_WT>  (671) 
193.24599999999998

>  <LOGP>  (671) 
1.4212

>  <TPSA>  (671) 
63.32000000000001

>  <POPULARITY>  (671) 
31.4

>  <PROTECTED>  (671) 
TRUE

>  <SMILES>  (671) 
N[C@@H](CCCc1(ccccc1))C(=O)O

>  <INCHIKEY>  (671) 
XOQZTHUXZWQXOK-JTQLQIEISA-N

$$$$
Ala_cPr
     RDKit          2D

  9  9  0  0  0  0  0  0  0  0999 V2000
   -0.3028    1.7184    0.0000 N   0  0  0  0  0  0  0  0  0  0  0  0
   -0.6415    0.2571    0.0000 C   0  0  0  0  0  0  0  0  0  0  0  0
    0.4546   -0.7668    0.0000 C   0  0  0  0  0  0  0  0  0  0  0  0
    1.8895   -0.3295    0.0000 C   0  0  0  0  0  0  0  0  0  0  0  0
    3.3507   -0.6681    0.0000 C   0  0  0  0  0  0  0  0  0  0  0  0
    2.9134    0.7667    0.0000 C   0  0  0  0  0  0  0  0  0  0  0  0
   -2.0763   -0.1802    0.0000 C   0  0  0  0  0  0  0  0  0  0  0  0
   -2.4150   -1.6415    0.0000 O   0  0  0  0  0  0  0  0  0  0  0  0
   -3.1725    0.8437    0.0000 O   0  0  0  0  0  0  0  0  0  0  0  0
  2  1  1  1
  2  3  1  0
  3  4  1  0
  4  5  1  0
  5  6  1  0
  2  7  1  0
  7  8  2  0
  7  9  1  0
  6  4  1  0
M  END
>  <rName>  (672) 
Ala_cPr

>  <PQ_SYMBOL>  (672) 
Ala_cPr

>  <FULL_NAME>  (672) 
3-Cyclopropyl-L-Alanine

>  <IUPAC_CONDENSED>  (672) 
Ala(cPr)

>  <IUPAC>  (672) 
(2S)-2-amino-3-cyclopropylpropanoic acid

>  <TYPE>  (672) 
Backbone

>  <CLASS>  (672) 
alpha

>  <ANALOG>  (672) 
Ala

>  <MOL_WT>  (672) 
129.15900000000002

>  <LOGP>  (672) 
0.19839999999999985

>  <TPSA>  (672) 
63.32000000000001

>  <POPULARITY>  (672) 
16.8

>  <PROTECTED>  (672) 
TRUE

>  <SMILES>  (672) 
N[C@@H](CC1(CC1))C(=O)O

>  <INCHIKEY>  (672) 
XGUXJMWPVJQIHI-YFKPBYRVSA-N

$$$$
Ala_tBu
     RDKit          2D

 10  9  0  0  0  0  0  0  0  0999 V2000
    0.5029   -1.7542    0.0000 N   0  0  0  0  0  0  0  0  0  0  0  0
    0.7450   -0.2738    0.0000 C   0  0  0  0  0  0  0  0  0  0  0  0
   -0.4160    0.6760    0.0000 C   0  0  0  0  0  0  0  0  0  0  0  0
   -1.8190    0.1455    0.0000 C   0  0  0  0  0  0  0  0  0  0  0  0
   -2.3495    1.5485    0.0000 C   0  0  0  0  0  0  0  0  0  0  0  0
   -1.2885   -1.2576    0.0000 C   0  0  0  0  0  0  0  0  0  0  0  0
   -3.2221   -0.3850    0.0000 C   0  0  0  0  0  0  0  0  0  0  0  0
    2.1480    0.2567    0.0000 C   0  0  0  0  0  0  0  0  0  0  0  0
    2.3901    1.7370    0.0000 O   0  0  0  0  0  0  0  0  0  0  0  0
    3.3090   -0.6932    0.0000 O   0  0  0  0  0  0  0  0  0  0  0  0
  2  1  1  1
  2  3  1  0
  3  4  1  0
  4  5  1  0
  4  6  1  0
  4  7  1  0
  2  8  1  0
  8  9  2  0
  8 10  1  0
M  END
>  <rName>  (673) 
Ala_tBu

>  <PQ_SYMBOL>  (673) 
Ala_tBu

>  <FULL_NAME>  (673) 
4-Methyl-L-Leucine

>  <IUPAC_CONDENSED>  (673) 
Ala(tBu)

>  <IUPAC>  (673) 
(2S)-2-amino-4,4-dimethylpentanoic acid

>  <TYPE>  (673) 
Backbone

>  <CLASS>  (673) 
alpha

>  <ANALOG>  (673) 
Leu

>  <MOL_WT>  (673) 
145.202

>  <LOGP>  (673) 
0.8344999999999998

>  <TPSA>  (673) 
63.32000000000001

>  <POPULARITY>  (673) 
22

>  <PROTECTED>  (673) 
TRUE

>  <SMILES>  (673) 
N[C@@H](CC(C)(C)C)C(=O)O

>  <INCHIKEY>  (673) 
LPBSHGLDBQBSPI-YFKPBYRVSA-N

$$$$
aMePhe
     RDKit          2D

 13 13  0  0  0  0  0  0  0  0999 V2000
   -0.4214    1.4691    0.0000 N   0  0  0  0  0  0  0  0  0  0  0  0
   -1.5526    0.4840    0.0000 C   0  0  0  0  0  0  0  0  0  0  0  0
   -2.5377    1.6152    0.0000 C   0  0  0  0  0  0  0  0  0  0  0  0
   -0.5675   -0.6472    0.0000 C   0  0  0  0  0  0  0  0  0  0  0  0
    0.9047   -0.3597    0.0000 C   0  0  0  0  0  0  0  0  0  0  0  0
    1.3918    1.0591    0.0000 C   0  0  0  0  0  0  0  0  0  0  0  0
    2.8640    1.3466    0.0000 C   0  0  0  0  0  0  0  0  0  0  0  0
    3.8491    0.2154    0.0000 C   0  0  0  0  0  0  0  0  0  0  0  0
    3.3620   -1.2033    0.0000 C   0  0  0  0  0  0  0  0  0  0  0  0
    1.8898   -1.4908    0.0000 C   0  0  0  0  0  0  0  0  0  0  0  0
   -2.6837   -0.5011    0.0000 C   0  0  0  0  0  0  0  0  0  0  0  0
   -2.3962   -1.9733    0.0000 O   0  0  0  0  0  0  0  0  0  0  0  0
   -4.1025   -0.0140    0.0000 O   0  0  0  0  0  0  0  0  0  0  0  0
  1  2  1  0
  2  3  1  6
  2  4  1  0
  4  5  1  0
  5  6  2  0
  6  7  1  0
  7  8  2  0
  8  9  1  0
  9 10  2  0
  2 11  1  0
 11 12  2  0
 11 13  1  0
 10  5  1  0
M  END
>  <rName>  (674) 
aMePhe

>  <PQ_SYMBOL>  (674) 
aMePhe

>  <FULL_NAME>  (674) 
alpha-Methyl-L-Phenylalanine

>  <IUPAC_CONDENSED>  (674) 
aMePhe

>  <IUPAC>  (674) 
(2S)-2-amino-2-benzylpropanoic acid

>  <TYPE>  (674) 
Backbone

>  <CLASS>  (674) 
alpha

>  <ANALOG>  (674) 
Phe

>  <MOL_WT>  (674) 
179.21899999999997

>  <LOGP>  (674) 
1.0311

>  <TPSA>  (674) 
63.32000000000001

>  <POPULARITY>  (674) 
21.1

>  <PROTECTED>  (674) 
TRUE

>  <SMILES>  (674) 
N[C@@](C)(Cc1(ccccc1))C(=O)O

>  <INCHIKEY>  (674) 
HYOWVAAEQCNGLE-JTQLQIEISA-N

$$$$
NMe-N
     RDKit          2D

 10  9  0  0  0  0  0  0  0  0999 V2000
   -1.8138    1.4604    0.0000 N   0  0  0  0  0  0  0  0  0  0  0  0
   -3.1802    0.8418    0.0000 C   0  0  0  0  0  0  0  0  0  0  0  0
   -0.5948    0.5863    0.0000 C   0  0  0  0  0  0  0  0  0  0  0  0
    0.7717    1.2050    0.0000 C   0  0  0  0  0  0  0  0  0  0  0  0
    1.9907    0.3309    0.0000 C   0  0  0  0  0  0  0  0  0  0  0  0
    1.8433   -1.1619    0.0000 O   0  0  0  0  0  0  0  0  0  0  0  0
    3.3572    0.9495    0.0000 N   0  0  0  0  0  0  0  0  0  0  0  0
   -0.7422   -0.9064    0.0000 C   0  0  0  0  0  0  0  0  0  0  0  0
   -2.1087   -1.5251    0.0000 O   0  0  0  0  0  0  0  0  0  0  0  0
    0.4768   -1.7805    0.0000 O   0  0  0  0  0  0  0  0  0  0  0  0
  1  2  1  0
  1  3  1  0
  3  4  1  1
  4  5  1  0
  5  6  2  0
  5  7  1  0
  3  8  1  0
  8  9  2  0
  8 10  1  0
M  END
>  <rName>  (675) 
NMe-N

>  <PQ_SYMBOL>  (675) 
NMe-N

>  <FULL_NAME>  (675) 
N-Methyl-L-Asparagine

>  <IUPAC_CONDENSED>  (675) 
Me-Asn

>  <IUPAC>  (675) 
(2S)-3-carbamoyl-2-(methylamino)propanoic acid

>  <TYPE>  (675) 
Backbone

>  <CLASS>  (675) 
alpha

>  <ANALOG>  (675) 
Asn

>  <MOL_WT>  (675) 
146.14600000000002

>  <LOGP>  (675) 
-1.4655999999999993

>  <TPSA>  (675) 
92.42

>  <POPULARITY>  (675) 
13

>  <PROTECTED>  (675) 
TRUE

>  <SMILES>  (675) 
N(C)[C@@H](CC(=O)N)C(=O)O

>  <INCHIKEY>  (675) 
LNSMPSPTFDIWRQ-VKHMYHEASA-N

$$$$
Dap_acetyl
     RDKit          2D

 10  9  0  0  0  0  0  0  0  0999 V2000
   -1.2717    1.9622    0.0000 N   0  0  0  0  0  0  0  0  0  0  0  0
   -1.1946    0.4642    0.0000 C   0  0  0  0  0  0  0  0  0  0  0  0
    0.1413   -0.2180    0.0000 C   0  0  0  0  0  0  0  0  0  0  0  0
    1.4001    0.5978    0.0000 N   0  0  0  0  0  0  0  0  0  0  0  0
    2.7359   -0.0845    0.0000 C   0  0  0  0  0  0  0  0  0  0  0  0
    2.8131   -1.5825    0.0000 O   0  0  0  0  0  0  0  0  0  0  0  0
    3.9947    0.7313    0.0000 C   0  0  0  0  0  0  0  0  0  0  0  0
   -2.4533   -0.3516    0.0000 C   0  0  0  0  0  0  0  0  0  0  0  0
   -2.3762   -1.8496    0.0000 O   0  0  0  0  0  0  0  0  0  0  0  0
   -3.7892    0.3306    0.0000 O   0  0  0  0  0  0  0  0  0  0  0  0
  2  1  1  1
  2  3  1  0
  3  4  1  0
  4  5  1  0
  5  6  2  0
  5  7  1  0
  2  8  1  0
  8  9  2  0
  8 10  1  0
M  END
>  <rName>  (676) 
Dap_acetyl

>  <PQ_SYMBOL>  (676) 
Dap_acetyl

>  <FULL_NAME>  (676) 
(2S)-3-Acetamido-2-aminopropanoic acid

>  <IUPAC_CONDENSED>  (676) 
Dap(Ac)

>  <IUPAC>  (676) 
(2S)-2-amino-3-methylcarbonylaminopropanoic acid

>  <TYPE>  (676) 
Backbone

>  <CLASS>  (676) 
alpha

>  <ANALOG>  (676) 
X

>  <MOL_WT>  (676) 
146.146

>  <LOGP>  (676) 
-1.4655999999999998

>  <TPSA>  (676) 
92.42

>  <POPULARITY>  (676) 
16.2

>  <PROTECTED>  (676) 
TRUE

>  <SMILES>  (676) 
N[C@@H](CNC(=O)C)C(=O)O

>  <INCHIKEY>  (676) 
YSPAKPPINKSOKX-BYPYZUCNSA-N

$$$$
D-Pro_4SF
     RDKit          2D

  9  9  0  0  0  0  0  0  0  0999 V2000
   -0.1792   -1.4541    0.0000 N   0  0  0  0  0  0  0  0  0  0  0  0
    0.4598   -0.0969    0.0000 C   0  0  0  0  0  0  0  0  0  0  0  0
   -0.6334    0.9301    0.0000 C   0  0  0  0  0  0  0  0  0  0  0  0
   -1.9481    0.2077    0.0000 C   0  0  0  0  0  0  0  0  0  0  0  0
   -3.3052    0.8467    0.0000 F   0  0  0  0  0  0  0  0  0  0  0  0
   -1.6673   -1.2657    0.0000 C   0  0  0  0  0  0  0  0  0  0  0  0
    1.9333    0.1838    0.0000 C   0  0  0  0  0  0  0  0  0  0  0  0
    2.4269    1.6003    0.0000 O   0  0  0  0  0  0  0  0  0  0  0  0
    2.9132   -0.9519    0.0000 O   0  0  0  0  0  0  0  0  0  0  0  0
  1  2  1  0
  2  3  1  0
  3  4  1  0
  4  5  1  1
  4  6  1  0
  2  7  1  6
  7  8  2  0
  7  9  1  0
  6  1  1  0
M  END
>  <rName>  (677) 
D-Pro_4SF

>  <PQ_SYMBOL>  (677) 
D-Pro_4SF

>  <FULL_NAME>  (677) 
trans-4-Fluoro-D-Proline

>  <IUPAC_CONDENSED>  (677) 
D-Pro(4S-F)

>  <IUPAC>  (677) 
(2R,4S)-4-fluoropyrrolidine-2-carboxylic acid

>  <TYPE>  (677) 
Backbone

>  <CLASS>  (677) 
alpha

>  <ANALOG>  (677) 
Pro

>  <MOL_WT>  (677) 
133.122

>  <LOGP>  (677) 
-0.22900000000000015

>  <TPSA>  (677) 
49.33

>  <POPULARITY>  (677) 
7.5

>  <PROTECTED>  (677) 
TRUE

>  <SMILES>  (677) 
N1[C@H](C[C@H](F)C1)C(=O)O

>  <INCHIKEY>  (677) 
ZIWHMENIDGOELV-IUYQGCFVSA-N

$$$$
Pro_4SPh
     RDKit          2D

 14 15  0  0  0  0  0  0  0  0999 V2000
   -2.0158    1.6013    0.0000 N   0  0  0  0  0  0  0  0  0  0  0  0
   -2.3178    0.1320    0.0000 C   0  0  0  0  0  0  0  0  0  0  0  0
   -1.0138   -0.6092    0.0000 C   0  0  0  0  0  0  0  0  0  0  0  0
    0.0942    0.4019    0.0000 C   0  0  0  0  0  0  0  0  0  0  0  0
   -0.5251    1.7681    0.0000 C   0  0  0  0  0  0  0  0  0  0  0  0
    1.5635    0.0999    0.0000 C   0  0  0  0  0  0  0  0  0  0  0  0
    2.0365   -1.3236    0.0000 C   0  0  0  0  0  0  0  0  0  0  0  0
    3.5058   -1.6256    0.0000 C   0  0  0  0  0  0  0  0  0  0  0  0
    4.5020   -0.5042    0.0000 C   0  0  0  0  0  0  0  0  0  0  0  0
    4.0290    0.9192    0.0000 C   0  0  0  0  0  0  0  0  0  0  0  0
    2.5597    1.2213    0.0000 C   0  0  0  0  0  0  0  0  0  0  0  0
   -3.6840   -0.4872    0.0000 C   0  0  0  0  0  0  0  0  0  0  0  0
   -3.8308   -1.9800    0.0000 O   0  0  0  0  0  0  0  0  0  0  0  0
   -4.9034    0.3863    0.0000 O   0  0  0  0  0  0  0  0  0  0  0  0
  1  2  1  0
  2  3  1  0
  3  4  1  0
  4  5  1  0
  4  6  1  6
  6  7  2  0
  7  8  1  0
  8  9  2  0
  9 10  1  0
 10 11  2  0
  2 12  1  1
 12 13  2  0
 12 14  1  0
  5  1  1  0
 11  6  1  0
M  END
>  <rName>  (678) 
Pro_4SPh

>  <PQ_SYMBOL>  (678) 
Pro_4SPh

>  <FULL_NAME>  (678) 
(4S)-4-Phenyl-L-Proline

>  <IUPAC_CONDENSED>  (678) 
Pro(4S-Ph)

>  <IUPAC>  (678) 
(2S,4S)-4-phenylpyrrolidine-2-carboxylic acid

>  <TYPE>  (678) 
Backbone

>  <CLASS>  (678) 
alpha

>  <ANALOG>  (678) 
Pro

>  <MOL_WT>  (678) 
191.23

>  <LOGP>  (678) 
1.2167

>  <TPSA>  (678) 
49.33

>  <POPULARITY>  (678) 
12.3

>  <PROTECTED>  (678) 
TRUE

>  <SMILES>  (678) 
N1[C@@H](C[C@H](C1)c2(ccccc2))C(=O)O

>  <INCHIKEY>  (678) 
JHHOFXBPLJDHOR-ZJUUUORDSA-N

$$$$
Hyp_Bn
     RDKit          2D

 16 17  0  0  0  0  0  0  0  0999 V2000
   -3.4311    1.5647    0.0000 N   0  0  0  0  0  0  0  0  0  0  0  0
   -3.3806    0.0656    0.0000 C   0  0  0  0  0  0  0  0  0  0  0  0
   -1.9392   -0.3496    0.0000 C   0  0  0  0  0  0  0  0  0  0  0  0
   -1.0989    0.8929    0.0000 C   0  0  0  0  0  0  0  0  0  0  0  0
    0.4003    0.9434    0.0000 O   0  0  0  0  0  0  0  0  0  0  0  0
    1.1936   -0.3297    0.0000 C   0  0  0  0  0  0  0  0  0  0  0  0
    2.6927   -0.2792    0.0000 C   0  0  0  0  0  0  0  0  0  0  0  0
    3.4860   -1.5522    0.0000 C   0  0  0  0  0  0  0  0  0  0  0  0
    4.9852   -1.5017    0.0000 C   0  0  0  0  0  0  0  0  0  0  0  0
    5.6910   -0.1782    0.0000 C   0  0  0  0  0  0  0  0  0  0  0  0
    4.8977    1.0949    0.0000 C   0  0  0  0  0  0  0  0  0  0  0  0
    3.3986    1.0444    0.0000 C   0  0  0  0  0  0  0  0  0  0  0  0
   -2.0209    2.0760    0.0000 C   0  0  0  0  0  0  0  0  0  0  0  0
   -4.5637   -0.8564    0.0000 C   0  0  0  0  0  0  0  0  0  0  0  0
   -4.3568   -2.3421    0.0000 O   0  0  0  0  0  0  0  0  0  0  0  0
   -5.9538   -0.2928    0.0000 O   0  0  0  0  0  0  0  0  0  0  0  0
  1  2  1  0
  2  3  1  0
  3  4  1  0
  4  5  1  6
  5  6  1  0
  6  7  1  0
  7  8  2  0
  8  9  1  0
  9 10  2  0
 10 11  1  0
 11 12  2  0
  4 13  1  0
  2 14  1  1
 14 15  2  0
 14 16  1  0
 12  7  1  0
 13  1  1  0
M  END
>  <rName>  (679) 
Hyp_Bn

>  <PQ_SYMBOL>  (679) 
Hyp_Bn

>  <FULL_NAME>  (679) 
(4R)-4-(Phenylmethoxy)-L-Proline

>  <IUPAC_CONDENSED>  (679) 
Hyp(Bn)

>  <IUPAC>  (679) 
(2S,4R)-4-benzyloxypyrrolidine-2-carboxylic acid

>  <TYPE>  (679) 
Backbone

>  <CLASS>  (679) 
alpha

>  <ANALOG>  (679) 
Pro

>  <MOL_WT>  (679) 
221.256

>  <LOGP>  (679) 
1.0182999999999998

>  <TPSA>  (679) 
58.56

>  <POPULARITY>  (679) 
14

>  <PROTECTED>  (679) 
TRUE

>  <SMILES>  (679) 
N2[C@@H](C[C@@H](OCc1(ccccc1))C2)C(=O)O

>  <INCHIKEY>  (679) 
RJFJRYVMVNICCP-MNOVXSKESA-N

$$$$
hPro
     RDKit          2D

  9  9  0  0  0  0  0  0  0  0999 V2000
   -0.8806   -1.0024    0.0000 N   0  0  0  0  0  0  0  0  0  0  0  0
   -0.4728    0.4411    0.0000 C   0  0  0  0  0  0  0  0  0  0  0  0
   -1.7196    1.2750    0.0000 C   0  0  0  0  0  0  0  0  0  0  0  0
   -2.8980    0.3469    0.0000 C   0  0  0  0  0  0  0  0  0  0  0  0
   -2.3794   -1.0606    0.0000 C   0  0  0  0  0  0  0  0  0  0  0  0
    0.9347    0.9597    0.0000 C   0  0  0  0  0  0  0  0  0  0  0  0
    2.0876   -0.0000    0.0000 C   0  0  0  0  0  0  0  0  0  0  0  0
    1.8329   -1.4782    0.0000 O   0  0  0  0  0  0  0  0  0  0  0  0
    3.4951    0.5186    0.0000 O   0  0  0  0  0  0  0  0  0  0  0  0
  1  2  1  0
  2  3  1  0
  3  4  1  0
  4  5  1  0
  2  6  1  1
  6  7  1  0
  7  8  2  0
  7  9  1  0
  5  1  1  0
M  END
>  <rName>  (680) 
hPro

>  <PQ_SYMBOL>  (680) 
hPro

>  <FULL_NAME>  (680) 
L-(+)-homoproline

>  <IUPAC_CONDENSED>  (680) 
hPro

>  <IUPAC>  (680) 
2-((2S)-pyrrolidin-2-yl)acetic acid

>  <TYPE>  (680) 
Backbone

>  <CLASS>  (680) 
beta

>  <ANALOG>  (680) 
Pro

>  <MOL_WT>  (680) 
129.15900000000002

>  <LOGP>  (680) 
0.2131

>  <TPSA>  (680) 
49.33

>  <POPULARITY>  (680) 
20.8

>  <PROTECTED>  (680) 
TRUE

>  <SMILES>  (680) 
N1[C@@H](CCC1)CC(=O)O

>  <INCHIKEY>  (680) 
ADSALMJPJUKESW-YFKPBYRVSA-N

$$$$
Trp_Me
     RDKit          2D

 16 17  0  0  0  0  0  0  0  0999 V2000
   -2.6387   -1.6746    0.0000 N   0  0  0  0  0  0  0  0  0  0  0  0
   -2.6908   -0.1755    0.0000 C   0  0  0  0  0  0  0  0  0  0  0  0
   -1.4185    0.6191    0.0000 C   0  0  0  0  0  0  0  0  0  0  0  0
   -0.0943   -0.0853    0.0000 C   0  0  0  0  0  0  0  0  0  0  0  0
    0.1142   -1.5708    0.0000 C   0  0  0  0  0  0  0  0  0  0  0  0
    1.5913   -1.8316    0.0000 N   0  0  0  0  0  0  0  0  0  0  0  0
    2.2486   -3.1799    0.0000 C   0  0  0  0  0  0  0  0  0  0  0  0
    2.2958   -0.5073    0.0000 C   0  0  0  0  0  0  0  0  0  0  0  0
    3.7514   -0.1448    0.0000 C   0  0  0  0  0  0  0  0  0  0  0  0
    4.1651    1.2970    0.0000 C   0  0  0  0  0  0  0  0  0  0  0  0
    3.1234    2.3763    0.0000 C   0  0  0  0  0  0  0  0  0  0  0  0
    1.6678    2.0137    0.0000 C   0  0  0  0  0  0  0  0  0  0  0  0
    1.2541    0.5719    0.0000 C   0  0  0  0  0  0  0  0  0  0  0  0
   -4.0150    0.5290    0.0000 C   0  0  0  0  0  0  0  0  0  0  0  0
   -4.0671    2.0281    0.0000 O   0  0  0  0  0  0  0  0  0  0  0  0
   -5.2873   -0.2656    0.0000 O   0  0  0  0  0  0  0  0  0  0  0  0
  2  1  1  6
  2  3  1  0
  3  4  1  0
  4  5  2  0
  5  6  1  0
  6  7  1  0
  6  8  1  0
  8  9  2  0
  9 10  1  0
 10 11  2  0
 11 12  1  0
 12 13  2  0
  2 14  1  0
 14 15  2  0
 14 16  1  0
 13  4  1  0
 13  8  1  0
M  END
>  <rName>  (681) 
Trp_Me

>  <PQ_SYMBOL>  (681) 
Trp_Me

>  <FULL_NAME>  (681) 
1-Methyl-L-Tryptophan

>  <IUPAC_CONDENSED>  (681) 
Trp(Me)

>  <IUPAC>  (681) 
(2S)-2-amino-3-(1-methyl-1H-indol-3-yl)propanoic acid

>  <TYPE>  (681) 
Backbone

>  <CLASS>  (681) 
alpha

>  <ANALOG>  (681) 
Trp

>  <MOL_WT>  (681) 
218.256

>  <LOGP>  (681) 
1.1327000000000003

>  <TPSA>  (681) 
68.25

>  <POPULARITY>  (681) 
22.1

>  <PROTECTED>  (681) 
TRUE

>  <SMILES>  (681) 
N[C@@H](Cc1(cn(C)c2(ccccc12)))C(=O)O

>  <INCHIKEY>  (681) 
ZADWXFSZEAPBJS-JTQLQIEISA-N

$$$$
Trp_5Cl
     RDKit          2D

 16 17  0  0  0  0  0  0  0  0999 V2000
   -3.0564   -1.5854    0.0000 N   0  0  0  0  0  0  0  0  0  0  0  0
   -2.8364   -0.1016    0.0000 C   0  0  0  0  0  0  0  0  0  0  0  0
   -1.4415    0.4499    0.0000 C   0  0  0  0  0  0  0  0  0  0  0  0
   -0.2664   -0.4825    0.0000 C   0  0  0  0  0  0  0  0  0  0  0  0
   -0.3301   -1.9811    0.0000 C   0  0  0  0  0  0  0  0  0  0  0  0
    1.0756   -2.5048    0.0000 N   0  0  0  0  0  0  0  0  0  0  0  0
    2.0079   -1.3297    0.0000 C   0  0  0  0  0  0  0  0  0  0  0  0
    3.5050   -1.2364    0.0000 C   0  0  0  0  0  0  0  0  0  0  0  0
    4.1727    0.1068    0.0000 C   0  0  0  0  0  0  0  0  0  0  0  0
    3.3433    1.3567    0.0000 C   0  0  0  0  0  0  0  0  0  0  0  0
    4.0110    2.6999    0.0000 Cl  0  0  0  0  0  0  0  0  0  0  0  0
    1.8462    1.2633    0.0000 C   0  0  0  0  0  0  0  0  0  0  0  0
    1.1785   -0.0799    0.0000 C   0  0  0  0  0  0  0  0  0  0  0  0
   -4.0115    0.8308    0.0000 C   0  0  0  0  0  0  0  0  0  0  0  0
   -3.7915    2.3146    0.0000 O   0  0  0  0  0  0  0  0  0  0  0  0
   -5.4064    0.2794    0.0000 O   0  0  0  0  0  0  0  0  0  0  0  0
  2  1  1  6
  2  3  1  0
  3  4  1  0
  4  5  2  0
  5  6  1  0
  6  7  1  0
  7  8  1  0
  8  9  2  0
  9 10  1  0
 10 11  1  0
 10 12  2  0
 12 13  1  0
  2 14  1  0
 14 15  2  0
 14 16  1  0
 13  4  1  0
 13  7  2  0
M  END
>  <rName>  (682) 
Trp_5Cl

>  <PQ_SYMBOL>  (682) 
Trp_5Cl

>  <FULL_NAME>  (682) 
5-Chloro-L-Tryptophan

>  <IUPAC_CONDENSED>  (682) 
Trp(5-Cl)

>  <IUPAC>  (682) 
(2S)-2-amino-3-(5-chloro-1H-indol-3-yl)propanoic acid

>  <TYPE>  (682) 
Backbone

>  <CLASS>  (682) 
alpha

>  <ANALOG>  (682) 
Trp

>  <MOL_WT>  (682) 
238.67399999999998

>  <LOGP>  (682) 
1.7757000000000003

>  <TPSA>  (682) 
79.11

>  <POPULARITY>  (682) 
12.8

>  <PROTECTED>  (682) 
TRUE

>  <SMILES>  (682) 
N[C@@H](Cc1(c[nH]c2(ccc(Cl)cc12)))C(=O)O

>  <INCHIKEY>  (682) 
TUKKZLIDCNWKIN-VIFPVBQESA-N

$$$$
Trp_6Cl
     RDKit          2D

 16 17  0  0  0  0  0  0  0  0999 V2000
   -3.0545   -1.6426    0.0000 N   0  0  0  0  0  0  0  0  0  0  0  0
   -2.9369   -0.1473    0.0000 C   0  0  0  0  0  0  0  0  0  0  0  0
   -1.5831    0.4986    0.0000 C   0  0  0  0  0  0  0  0  0  0  0  0
   -0.3468   -0.3509    0.0000 C   0  0  0  0  0  0  0  0  0  0  0  0
   -0.3075   -1.8504    0.0000 C   0  0  0  0  0  0  0  0  0  0  0  0
    1.1308   -2.2763    0.0000 N   0  0  0  0  0  0  0  0  0  0  0  0
    1.9803   -1.0400    0.0000 C   0  0  0  0  0  0  0  0  0  0  0  0
    3.4675   -0.8441    0.0000 C   0  0  0  0  0  0  0  0  0  0  0  0
    4.0414    0.5417    0.0000 C   0  0  0  0  0  0  0  0  0  0  0  0
    5.5285    0.7376    0.0000 Cl  0  0  0  0  0  0  0  0  0  0  0  0
    3.1281    1.7317    0.0000 C   0  0  0  0  0  0  0  0  0  0  0  0
    1.6410    1.5358    0.0000 C   0  0  0  0  0  0  0  0  0  0  0  0
    1.0671    0.1499    0.0000 C   0  0  0  0  0  0  0  0  0  0  0  0
   -4.1732    0.7023    0.0000 C   0  0  0  0  0  0  0  0  0  0  0  0
   -4.0556    2.1976    0.0000 O   0  0  0  0  0  0  0  0  0  0  0  0
   -5.5270    0.0564    0.0000 O   0  0  0  0  0  0  0  0  0  0  0  0
  2  1  1  6
  2  3  1  0
  3  4  1  0
  4  5  2  0
  5  6  1  0
  6  7  1  0
  7  8  1  0
  8  9  2  0
  9 10  1  0
  9 11  1  0
 11 12  2  0
 12 13  1  0
  2 14  1  0
 14 15  2  0
 14 16  1  0
 13  4  1  0
 13  7  2  0
M  END
>  <rName>  (683) 
Trp_6Cl

>  <PQ_SYMBOL>  (683) 
Trp_6Cl

>  <FULL_NAME>  (683) 
6-Chloro-L-Tryptophan

>  <IUPAC_CONDENSED>  (683) 
Trp(6-Cl)

>  <IUPAC>  (683) 
(2S)-2-amino-3-(6-chloro-1H-indol-3-yl)propanoic acid

>  <TYPE>  (683) 
Backbone

>  <CLASS>  (683) 
alpha

>  <ANALOG>  (683) 
Trp

>  <MOL_WT>  (683) 
238.67399999999998

>  <LOGP>  (683) 
1.7757

>  <TPSA>  (683) 
79.11

>  <POPULARITY>  (683) 
19.3

>  <PROTECTED>  (683) 
TRUE

>  <SMILES>  (683) 
N[C@@H](Cc1(c[nH]c2(cc(Cl)ccc12)))C(=O)O

>  <INCHIKEY>  (683) 
FICLVQOYKYBXFN-VIFPVBQESA-N

$$$$
D-Trp_7Aza
     RDKit          2D

 15 16  0  0  0  0  0  0  0  0999 V2000
   -2.6183   -1.7023    0.0000 N   0  0  0  0  0  0  0  0  0  0  0  0
   -2.5622   -0.2034    0.0000 C   0  0  0  0  0  0  0  0  0  0  0  0
   -1.2360    0.4975    0.0000 C   0  0  0  0  0  0  0  0  0  0  0  0
    0.0341   -0.3006    0.0000 C   0  0  0  0  0  0  0  0  0  0  0  0
    0.1349   -1.7972    0.0000 C   0  0  0  0  0  0  0  0  0  0  0  0
    1.5895   -2.1637    0.0000 N   0  0  0  0  0  0  0  0  0  0  0  0
    2.3875   -0.8937    0.0000 C   0  0  0  0  0  0  0  0  0  0  0  0
    3.8654   -0.6369    0.0000 N   0  0  0  0  0  0  0  0  0  0  0  0
    4.3820    0.7713    0.0000 C   0  0  0  0  0  0  0  0  0  0  0  0
    3.4207    1.9228    0.0000 C   0  0  0  0  0  0  0  0  0  0  0  0
    1.9429    1.6661    0.0000 C   0  0  0  0  0  0  0  0  0  0  0  0
    1.4263    0.2578    0.0000 C   0  0  0  0  0  0  0  0  0  0  0  0
   -3.8322    0.5947    0.0000 C   0  0  0  0  0  0  0  0  0  0  0  0
   -3.7761    2.0937    0.0000 O   0  0  0  0  0  0  0  0  0  0  0  0
   -5.1584   -0.1061    0.0000 O   0  0  0  0  0  0  0  0  0  0  0  0
  2  1  1  1
  2  3  1  0
  3  4  1  0
  4  5  2  0
  5  6  1  0
  6  7  1  0
  7  8  2  0
  8  9  1  0
  9 10  2  0
 10 11  1  0
 11 12  2  0
  2 13  1  0
 13 14  2  0
 13 15  1  0
 12  4  1  0
 12  7  1  0
M  END
>  <rName>  (684) 
D-Trp_7Aza

>  <PQ_SYMBOL>  (684) 
D-Trp_7Aza

>  <FULL_NAME>  (684) 
7-Aza-D-Tryptophan

>  <IUPAC_CONDENSED>  (684) 
D-Trp(7-Aza)

>  <IUPAC>  (684) 
(2R)-2-amino-3-(2,9-diazabicyclo[4.3.0]nona-1,3,5,7-tetraen-7-yl)propanoic acid

>  <TYPE>  (684) 
Backbone

>  <CLASS>  (684) 
alpha

>  <ANALOG>  (684) 
Phe

>  <MOL_WT>  (684) 
205.21699999999998

>  <LOGP>  (684) 
0.5172999999999999

>  <TPSA>  (684) 
92.00000000000001

>  <POPULARITY>  (684) 
4.9

>  <PROTECTED>  (684) 
TRUE

>  <SMILES>  (684) 
N[C@H](Cc1(c[nH]c2(ncccc12)))C(=O)O

>  <INCHIKEY>  (684) 
SNLOIIPRZGMRAB-MRVPVSSYSA-N

$$$$
Phe_2MeNH2
     RDKit          2D

 14 14  0  0  0  0  0  0  0  0999 V2000
   -1.9781    1.7869    0.0000 N   0  0  0  0  0  0  0  0  0  0  0  0
   -2.0323    0.2879    0.0000 C   0  0  0  0  0  0  0  0  0  0  0  0
   -0.7612   -0.5086    0.0000 C   0  0  0  0  0  0  0  0  0  0  0  0
    0.5641    0.1940    0.0000 C   0  0  0  0  0  0  0  0  0  0  0  0
    0.6183    1.6931    0.0000 C   0  0  0  0  0  0  0  0  0  0  0  0
    1.9435    2.3957    0.0000 C   0  0  0  0  0  0  0  0  0  0  0  0
    3.2146    1.5993    0.0000 C   0  0  0  0  0  0  0  0  0  0  0  0
    3.1605    0.1002    0.0000 C   0  0  0  0  0  0  0  0  0  0  0  0
    1.8352   -0.6024    0.0000 C   0  0  0  0  0  0  0  0  0  0  0  0
    1.7811   -2.1014    0.0000 C   0  0  0  0  0  0  0  0  0  0  0  0
    3.0522   -2.8978    0.0000 N   0  0  0  0  0  0  0  0  0  0  0  0
   -3.3575   -0.4148    0.0000 C   0  0  0  0  0  0  0  0  0  0  0  0
   -3.4117   -1.9138    0.0000 O   0  0  0  0  0  0  0  0  0  0  0  0
   -4.6287    0.3817    0.0000 O   0  0  0  0  0  0  0  0  0  0  0  0
  2  1  1  1
  2  3  1  0
  3  4  1  0
  4  5  2  0
  5  6  1  0
  6  7  2  0
  7  8  1  0
  8  9  2  0
  9 10  1  0
 10 11  1  0
  2 12  1  0
 12 13  2  0
 12 14  1  0
  9  4  1  0
M  END
>  <rName>  (685) 
Phe_2MeNH2

>  <PQ_SYMBOL>  (685) 
Phe_2MeNH2

>  <FULL_NAME>  (685) 
2-(Aminomethyl)-L-Phenylalanine

>  <IUPAC_CONDENSED>  (685) 
Phe(2-MeNH2)

>  <IUPAC>  (685) 
(2S)-2-amino-3-(2-(aminomethyl)phenyl)propanoic acid

>  <TYPE>  (685) 
Backbone

>  <CLASS>  (685) 
alpha

>  <ANALOG>  (685) 
Phe

>  <MOL_WT>  (685) 
194.23399999999995

>  <LOGP>  (685) 
0.09970000000000018

>  <TPSA>  (685) 
89.34

>  <POPULARITY>  (685) 
10.5

>  <PROTECTED>  (685) 
TRUE

>  <SMILES>  (685) 
N[C@@H](Cc1(ccccc1CN))C(=O)O

>  <INCHIKEY>  (685) 
RDAKEAJYLGZEEA-VIFPVBQESA-N

$$$$
Phe_2CONH2
     RDKit          2D

 15 15  0  0  0  0  0  0  0  0999 V2000
   -2.0511    1.9295    0.0000 N   0  0  0  0  0  0  0  0  0  0  0  0
   -2.0725    0.4296    0.0000 C   0  0  0  0  0  0  0  0  0  0  0  0
   -0.7843   -0.3388    0.0000 C   0  0  0  0  0  0  0  0  0  0  0  0
    0.5253    0.3925    0.0000 C   0  0  0  0  0  0  0  0  0  0  0  0
    0.5467    1.8924    0.0000 C   0  0  0  0  0  0  0  0  0  0  0  0
    1.8563    2.6238    0.0000 C   0  0  0  0  0  0  0  0  0  0  0  0
    3.1445    1.8553    0.0000 C   0  0  0  0  0  0  0  0  0  0  0  0
    3.1231    0.3555    0.0000 C   0  0  0  0  0  0  0  0  0  0  0  0
    1.8135   -0.3759    0.0000 C   0  0  0  0  0  0  0  0  0  0  0  0
    1.7921   -1.8758    0.0000 C   0  0  0  0  0  0  0  0  0  0  0  0
    0.4825   -2.6072    0.0000 O   0  0  0  0  0  0  0  0  0  0  0  0
    3.0803   -2.6442    0.0000 N   0  0  0  0  0  0  0  0  0  0  0  0
   -3.3821   -0.3018    0.0000 C   0  0  0  0  0  0  0  0  0  0  0  0
   -3.4036   -1.8016    0.0000 O   0  0  0  0  0  0  0  0  0  0  0  0
   -4.6704    0.4667    0.0000 O   0  0  0  0  0  0  0  0  0  0  0  0
  2  1  1  1
  2  3  1  0
  3  4  1  0
  4  5  2  0
  5  6  1  0
  6  7  2  0
  7  8  1  0
  8  9  2  0
  9 10  1  0
 10 11  2  0
 10 12  1  0
  2 13  1  0
 13 14  2  0
 13 15  1  0
  9  4  1  0
M  END
>  <rName>  (686) 
Phe_2CONH2

>  <PQ_SYMBOL>  (686) 
Phe_2CONH2

>  <FULL_NAME>  (686) 
2-Carbamoyl-L-Phenylalanine

>  <IUPAC_CONDENSED>  (686) 
Phe(2-CONH2)

>  <IUPAC>  (686) 
(2S)-2-amino-3-(2-carbamoylphenyl)propanoic acid

>  <TYPE>  (686) 
Backbone

>  <CLASS>  (686) 
alpha

>  <ANALOG>  (686) 
Phe

>  <MOL_WT>  (686) 
208.21699999999996

>  <LOGP>  (686) 
-0.2601000000000003

>  <TPSA>  (686) 
106.41000000000001

>  <POPULARITY>  (686) 
3.7

>  <PROTECTED>  (686) 
TRUE

>  <SMILES>  (686) 
N[C@@H](Cc1(ccccc1C(=O)N))C(=O)O

>  <INCHIKEY>  (686) 
QDQWGGPXZQIUPR-QMMMGPOBSA-N

$$$$
Phe_2Br
     RDKit          2D

 13 13  0  0  0  0  0  0  0  0999 V2000
   -1.4864    1.8099    0.0000 N   0  0  0  0  0  0  0  0  0  0  0  0
   -1.7669    0.3364    0.0000 C   0  0  0  0  0  0  0  0  0  0  0  0
   -0.6311   -0.6433    0.0000 C   0  0  0  0  0  0  0  0  0  0  0  0
    0.7853   -0.1495    0.0000 C   0  0  0  0  0  0  0  0  0  0  0  0
    1.0658    1.3241    0.0000 C   0  0  0  0  0  0  0  0  0  0  0  0
    2.4822    1.8179    0.0000 C   0  0  0  0  0  0  0  0  0  0  0  0
    3.6181    0.8382    0.0000 C   0  0  0  0  0  0  0  0  0  0  0  0
    3.3376   -0.6353    0.0000 C   0  0  0  0  0  0  0  0  0  0  0  0
    1.9212   -1.1292    0.0000 C   0  0  0  0  0  0  0  0  0  0  0  0
    1.6407   -2.6027    0.0000 Br  0  0  0  0  0  0  0  0  0  0  0  0
   -3.1833   -0.1575    0.0000 C   0  0  0  0  0  0  0  0  0  0  0  0
   -3.4638   -1.6310    0.0000 O   0  0  0  0  0  0  0  0  0  0  0  0
   -4.3192    0.8222    0.0000 O   0  0  0  0  0  0  0  0  0  0  0  0
  2  1  1  1
  2  3  1  0
  3  4  1  0
  4  5  2  0
  5  6  1  0
  6  7  2  0
  7  8  1  0
  8  9  2  0
  9 10  1  0
  2 11  1  0
 11 12  2  0
 11 13  1  0
  9  4  1  0
M  END
>  <rName>  (687) 
Phe_2Br

>  <PQ_SYMBOL>  (687) 
Phe_2Br

>  <FULL_NAME>  (687) 
2-Bromo-L-Phenylalanine

>  <IUPAC_CONDENSED>  (687) 
Phe(2-Br)

>  <IUPAC>  (687) 
(2S)-2-amino-3-(2-bromophenyl)propanoic acid

>  <TYPE>  (687) 
Backbone

>  <CLASS>  (687) 
alpha

>  <ANALOG>  (687) 
Phe

>  <MOL_WT>  (687) 
244.08799999999997

>  <LOGP>  (687) 
1.4035000000000002

>  <TPSA>  (687) 
63.32000000000001

>  <POPULARITY>  (687) 
15.5

>  <PROTECTED>  (687) 
TRUE

>  <SMILES>  (687) 
N[C@@H](Cc1(ccccc1Br))C(=O)O

>  <INCHIKEY>  (687) 
JFVLNTLXEZDFHW-QMMMGPOBSA-N

$$$$
Tyr_26diMe
     RDKit          2D

 15 15  0  0  0  0  0  0  0  0999 V2000
   -1.7110    1.6830    0.0000 N   0  0  0  0  0  0  0  0  0  0  0  0
   -2.0873    0.2310    0.0000 C   0  0  0  0  0  0  0  0  0  0  0  0
   -1.0179   -0.8209    0.0000 C   0  0  0  0  0  0  0  0  0  0  0  0
    0.4277   -0.4208    0.0000 C   0  0  0  0  0  0  0  0  0  0  0  0
    0.8040    1.0313    0.0000 C   0  0  0  0  0  0  0  0  0  0  0  0
   -0.2654    2.0832    0.0000 C   0  0  0  0  0  0  0  0  0  0  0  0
    2.2497    1.4315    0.0000 C   0  0  0  0  0  0  0  0  0  0  0  0
    3.3190    0.3796    0.0000 C   0  0  0  0  0  0  0  0  0  0  0  0
    4.7647    0.7797    0.0000 O   0  0  0  0  0  0  0  0  0  0  0  0
    2.9428   -1.0725    0.0000 C   0  0  0  0  0  0  0  0  0  0  0  0
    1.4971   -1.4726    0.0000 C   0  0  0  0  0  0  0  0  0  0  0  0
    1.1209   -2.9247    0.0000 C   0  0  0  0  0  0  0  0  0  0  0  0
   -3.5329   -0.1692    0.0000 C   0  0  0  0  0  0  0  0  0  0  0  0
   -3.9092   -1.6212    0.0000 O   0  0  0  0  0  0  0  0  0  0  0  0
   -4.6023    0.8827    0.0000 O   0  0  0  0  0  0  0  0  0  0  0  0
  2  1  1  1
  2  3  1  0
  3  4  1  0
  4  5  2  0
  5  6  1  0
  5  7  1  0
  7  8  2  0
  8  9  1  0
  8 10  1  0
 10 11  2  0
 11 12  1  0
  2 13  1  0
 13 14  2  0
 13 15  1  0
 11  4  1  0
M  END
>  <rName>  (688) 
Tyr_26diMe

>  <PQ_SYMBOL>  (688) 
Tyr_26diMe

>  <FULL_NAME>  (688) 
2,6-Dimethyl-L-Tyrosine

>  <IUPAC_CONDENSED>  (688) 
Tyr(2,6-diMe)

>  <IUPAC>  (688) 
(2S)-2-amino-3-(4-hydroxy-2,6-dimethylphenyl)propanoic acid

>  <TYPE>  (688) 
Backbone

>  <CLASS>  (688) 
alpha

>  <ANALOG>  (688) 
Tyr

>  <MOL_WT>  (688) 
209.24499999999998

>  <LOGP>  (688) 
0.9634400000000001

>  <TPSA>  (688) 
83.55

>  <POPULARITY>  (688) 
29.4

>  <PROTECTED>  (688) 
TRUE

>  <SMILES>  (688) 
N[C@@H](Cc1(c(C)cc(O)cc1C))C(=O)O

>  <INCHIKEY>  (688) 
LSNDLIKCFHLFKO-JTQLQIEISA-N

$$$$
Phe_24diCl
     RDKit          2D

 14 14  0  0  0  0  0  0  0  0999 V2000
   -1.7174    1.8436    0.0000 N   0  0  0  0  0  0  0  0  0  0  0  0
   -2.1036    0.3942    0.0000 C   0  0  0  0  0  0  0  0  0  0  0  0
   -1.0414   -0.6650    0.0000 C   0  0  0  0  0  0  0  0  0  0  0  0
    0.4069   -0.2747    0.0000 C   0  0  0  0  0  0  0  0  0  0  0  0
    0.7931    1.1747    0.0000 C   0  0  0  0  0  0  0  0  0  0  0  0
    2.2415    1.5649    0.0000 C   0  0  0  0  0  0  0  0  0  0  0  0
    3.3036    0.5057    0.0000 C   0  0  0  0  0  0  0  0  0  0  0  0
    4.7520    0.8960    0.0000 Cl  0  0  0  0  0  0  0  0  0  0  0  0
    2.9174   -0.9437    0.0000 C   0  0  0  0  0  0  0  0  0  0  0  0
    1.4691   -1.3339    0.0000 C   0  0  0  0  0  0  0  0  0  0  0  0
    1.0829   -2.7834    0.0000 Cl  0  0  0  0  0  0  0  0  0  0  0  0
   -3.5519    0.0039    0.0000 C   0  0  0  0  0  0  0  0  0  0  0  0
   -3.9381   -1.4455    0.0000 O   0  0  0  0  0  0  0  0  0  0  0  0
   -4.6140    1.0631    0.0000 O   0  0  0  0  0  0  0  0  0  0  0  0
  2  1  1  1
  2  3  1  0
  3  4  1  0
  4  5  1  0
  5  6  2  0
  6  7  1  0
  7  8  1  0
  7  9  2  0
  9 10  1  0
 10 11  1  0
  2 12  1  0
 12 13  2  0
 12 14  1  0
 10  4  2  0
M  END
>  <rName>  (689) 
Phe_24diCl

>  <PQ_SYMBOL>  (689) 
Phe_24diCl

>  <FULL_NAME>  (689) 
2,4-Dichloro-L-Phenylalanine

>  <IUPAC_CONDENSED>  (689) 
Phe(2,4-diCl)

>  <IUPAC>  (689) 
(2S)-2-amino-3-(2,4-dichlorophenyl)propanoic acid

>  <TYPE>  (689) 
Backbone

>  <CLASS>  (689) 
alpha

>  <ANALOG>  (689) 
Phe

>  <MOL_WT>  (689) 
234.082

>  <LOGP>  (689) 
1.9478000000000002

>  <TPSA>  (689) 
63.32000000000001

>  <POPULARITY>  (689) 
7.4

>  <PROTECTED>  (689) 
TRUE

>  <SMILES>  (689) 
N[C@@H](Cc1(ccc(Cl)cc1Cl))C(=O)O

>  <INCHIKEY>  (689) 
GWHQTNKPTXDNRM-QMMMGPOBSA-N

$$$$
Phe_24diMe
     RDKit          2D

 14 14  0  0  0  0  0  0  0  0999 V2000
   -1.7174    1.8436    0.0000 N   0  0  0  0  0  0  0  0  0  0  0  0
   -2.1036    0.3942    0.0000 C   0  0  0  0  0  0  0  0  0  0  0  0
   -1.0414   -0.6650    0.0000 C   0  0  0  0  0  0  0  0  0  0  0  0
    0.4069   -0.2747    0.0000 C   0  0  0  0  0  0  0  0  0  0  0  0
    0.7931    1.1747    0.0000 C   0  0  0  0  0  0  0  0  0  0  0  0
    2.2415    1.5649    0.0000 C   0  0  0  0  0  0  0  0  0  0  0  0
    3.3036    0.5057    0.0000 C   0  0  0  0  0  0  0  0  0  0  0  0
    4.7520    0.8960    0.0000 C   0  0  0  0  0  0  0  0  0  0  0  0
    2.9174   -0.9437    0.0000 C   0  0  0  0  0  0  0  0  0  0  0  0
    1.4691   -1.3339    0.0000 C   0  0  0  0  0  0  0  0  0  0  0  0
    1.0829   -2.7834    0.0000 C   0  0  0  0  0  0  0  0  0  0  0  0
   -3.5519    0.0039    0.0000 C   0  0  0  0  0  0  0  0  0  0  0  0
   -3.9381   -1.4455    0.0000 O   0  0  0  0  0  0  0  0  0  0  0  0
   -4.6140    1.0631    0.0000 O   0  0  0  0  0  0  0  0  0  0  0  0
  2  1  1  1
  2  3  1  0
  3  4  1  0
  4  5  1  0
  5  6  2  0
  6  7  1  0
  7  8  1  0
  7  9  2  0
  9 10  1  0
 10 11  1  0
  2 12  1  0
 12 13  2  0
 12 14  1  0
 10  4  2  0
M  END
>  <rName>  (690) 
Phe_24diMe

>  <PQ_SYMBOL>  (690) 
Phe_24diMe

>  <FULL_NAME>  (690) 
2,4-Dimethyl-L-Phenylalanine

>  <IUPAC_CONDENSED>  (690) 
Phe(2,4-diMe)

>  <IUPAC>  (690) 
(2S)-2-amino-3-(2,4-dimethylphenyl)propanoic acid

>  <TYPE>  (690) 
Backbone

>  <CLASS>  (690) 
alpha

>  <ANALOG>  (690) 
Phe

>  <MOL_WT>  (690) 
193.24599999999995

>  <LOGP>  (690) 
1.25784

>  <TPSA>  (690) 
63.32000000000001

>  <POPULARITY>  (690) 
9.7

>  <PROTECTED>  (690) 
TRUE

>  <SMILES>  (690) 
N[C@@H](Cc1(ccc(C)cc1C))C(=O)O

>  <INCHIKEY>  (690) 
ZEWXVRJSLTXWON-JTQLQIEISA-N

$$$$
Pro_4Ramino
     RDKit          2D

  9  9  0  0  0  0  0  0  0  0999 V2000
   -0.1792   -1.4541    0.0000 N   0  0  0  0  0  0  0  0  0  0  0  0
    0.4598   -0.0969    0.0000 C   0  0  0  0  0  0  0  0  0  0  0  0
   -0.6334    0.9301    0.0000 C   0  0  0  0  0  0  0  0  0  0  0  0
   -1.9481    0.2077    0.0000 C   0  0  0  0  0  0  0  0  0  0  0  0
   -3.3052    0.8467    0.0000 N   0  0  0  0  0  0  0  0  0  0  0  0
   -1.6673   -1.2657    0.0000 C   0  0  0  0  0  0  0  0  0  0  0  0
    1.9333    0.1838    0.0000 C   0  0  0  0  0  0  0  0  0  0  0  0
    2.4269    1.6003    0.0000 O   0  0  0  0  0  0  0  0  0  0  0  0
    2.9132   -0.9519    0.0000 O   0  0  0  0  0  0  0  0  0  0  0  0
  1  2  1  0
  2  3  1  0
  3  4  1  0
  4  5  1  6
  4  6  1  0
  2  7  1  1
  7  8  2  0
  7  9  1  0
  6  1  1  0
M  END
>  <rName>  (691) 
Pro_4Ramino

>  <PQ_SYMBOL>  (691) 
Pro_4Ramino

>  <FULL_NAME>  (691) 
(4R)-4-Amino-L-Proline

>  <IUPAC_CONDENSED>  (691) 
Pro(4R-amino)

>  <IUPAC>  (691) 
(2S,4R)-4-aminopyrrolidine-2-carboxylic acid

>  <TYPE>  (691) 
Backbone

>  <CLASS>  (691) 
alpha

>  <ANALOG>  (691) 
Pro

>  <MOL_WT>  (691) 
130.14700000000002

>  <LOGP>  (691) 
-1.2397999999999993

>  <TPSA>  (691) 
75.35

>  <POPULARITY>  (691) 
14.8

>  <PROTECTED>  (691) 
TRUE

>  <SMILES>  (691) 
N1[C@@H](C[C@@H](N)C1)C(=O)O

>  <INCHIKEY>  (691) 
SHINASQYHDCLEU-DMTCNVIQSA-N

$$$$
bAla
     RDKit          2D

  6  5  0  0  0  0  0  0  0  0999 V2000
    2.8748   -0.2197    0.0000 N   0  0  0  0  0  0  0  0  0  0  0  0
    1.4825    0.3386    0.0000 C   0  0  0  0  0  0  0  0  0  0  0  0
    0.3029   -0.5880    0.0000 C   0  0  0  0  0  0  0  0  0  0  0  0
   -1.0893   -0.0297    0.0000 C   0  0  0  0  0  0  0  0  0  0  0  0
   -1.3020    1.4551    0.0000 O   0  0  0  0  0  0  0  0  0  0  0  0
   -2.2689   -0.9563    0.0000 O   0  0  0  0  0  0  0  0  0  0  0  0
  1  2  1  0
  2  3  1  0
  3  4  1  0
  4  5  2  0
  4  6  1  0
M  END
>  <rName>  (692) 
bAla

>  <PQ_SYMBOL>  (692) 
bAla

>  <FULL_NAME>  (692) 
beta-Alanine

>  <IUPAC_CONDENSED>  (692) 
bAla

>  <IUPAC>  (692) 
3-aminopropanoic acid

>  <TYPE>  (692) 
Backbone

>  <CLASS>  (692) 
beta

>  <ANALOG>  (692) 
Gly

>  <MOL_WT>  (692) 
89.09399999999998

>  <LOGP>  (692) 
-0.5802

>  <TPSA>  (692) 
63.32000000000001

>  <POPULARITY>  (692) 
19.3

>  <PROTECTED>  (692) 
TRUE

>  <SMILES>  (692) 
NCCC(=O)O

>  <INCHIKEY>  (692) 
UCMIRNVEIXFBKS-UHFFFAOYSA-N

$$$$
Dap_Me
     RDKit          2D

  8  7  0  0  0  0  0  0  0  0999 V2000
   -0.2517   -1.8862    0.0000 N   0  0  0  0  0  0  0  0  0  0  0  0
   -0.3100   -0.3873    0.0000 C   0  0  0  0  0  0  0  0  0  0  0  0
    0.9590    0.4126    0.0000 C   0  0  0  0  0  0  0  0  0  0  0  0
    2.2862   -0.2864    0.0000 N   0  0  0  0  0  0  0  0  0  0  0  0
    3.5551    0.5134    0.0000 C   0  0  0  0  0  0  0  0  0  0  0  0
   -1.6371    0.3117    0.0000 C   0  0  0  0  0  0  0  0  0  0  0  0
   -1.6954    1.8105    0.0000 O   0  0  0  0  0  0  0  0  0  0  0  0
   -2.9061   -0.4882    0.0000 O   0  0  0  0  0  0  0  0  0  0  0  0
  2  1  1  6
  2  3  1  0
  3  4  1  0
  4  5  1  0
  2  6  1  0
  6  7  2  0
  6  8  1  0
M  END
>  <rName>  (693) 
Dap_Me

>  <PQ_SYMBOL>  (693) 
Dap_Me

>  <FULL_NAME>  (693) 
Beta-N-Methylamino-L-Alanine

>  <IUPAC_CONDENSED>  (693) 
Dap(Me)

>  <IUPAC>  (693) 
(2S)-2-amino-3-(methylamino)propanoic acid

>  <TYPE>  (693) 
Backbone

>  <CLASS>  (693) 
alpha

>  <ANALOG>  (693) 
X

>  <MOL_WT>  (693) 
118.13599999999998

>  <LOGP>  (693) 
-1.3822999999999996

>  <TPSA>  (693) 
75.35

>  <POPULARITY>  (693) 
22.2

>  <PROTECTED>  (693) 
TRUE

>  <SMILES>  (693) 
N[C@@H](CNC)C(=O)O

>  <INCHIKEY>  (693) 
UJVHVMNGOZXSOZ-VKHMYHEASA-N

$$$$
Aze
     RDKit          2D

  7  7  0  0  0  0  0  0  0  0999 V2000
    1.3117   -1.0607    0.0000 N   0  0  0  0  0  0  0  0  0  0  0  0
    0.2511    0.0000    0.0000 C   0  0  0  0  0  0  0  0  0  0  0  0
    1.3117    1.0607    0.0000 C   0  0  0  0  0  0  0  0  0  0  0  0
    2.3724    0.0000    0.0000 C   0  0  0  0  0  0  0  0  0  0  0  0
   -1.2489   -0.0000    0.0000 C   0  0  0  0  0  0  0  0  0  0  0  0
   -1.9989   -1.2990    0.0000 O   0  0  0  0  0  0  0  0  0  0  0  0
   -1.9989    1.2990    0.0000 O   0  0  0  0  0  0  0  0  0  0  0  0
  1  2  1  0
  2  3  1  0
  3  4  1  0
  2  5  1  6
  5  6  2  0
  5  7  1  0
  4  1  1  0
M  END
>  <rName>  (694) 
Aze

>  <PQ_SYMBOL>  (694) 
Aze

>  <FULL_NAME>  (694) 
L-Azetidine-2-carboxylic acid

>  <IUPAC_CONDENSED>  (694) 
Aze

>  <IUPAC>  (694) 
(2S)azetidine-2-carboxylic acid

>  <TYPE>  (694) 
Backbone

>  <CLASS>  (694) 
alpha

>  <ANALOG>  (694) 
Pro

>  <MOL_WT>  (694) 
101.10499999999999

>  <LOGP>  (694) 
-0.5671000000000002

>  <TPSA>  (694) 
49.33

>  <POPULARITY>  (694) 
31.1

>  <PROTECTED>  (694) 
TRUE

>  <SMILES>  (694) 
N1[C@@H](CC1)C(=O)O

>  <INCHIKEY>  (694) 
IADUEWIQBXOCDZ-VKHMYHEASA-N

$$$$
Ac4c
     RDKit          2D

  8  8  0  0  0  0  0  0  0  0999 V2000
    0.2785   -1.7061    0.0000 N   0  0  0  0  0  0  0  0  0  0  0  0
   -0.2785   -0.3134    0.0000 C   0  0  0  0  0  0  0  0  0  0  0  0
   -1.6713   -0.8704    0.0000 C   0  0  0  0  0  0  0  0  0  0  0  0
   -2.2283    0.5223    0.0000 C   0  0  0  0  0  0  0  0  0  0  0  0
   -0.8356    1.0794    0.0000 C   0  0  0  0  0  0  0  0  0  0  0  0
    1.1142    0.2437    0.0000 C   0  0  0  0  0  0  0  0  0  0  0  0
    1.3281    1.7284    0.0000 O   0  0  0  0  0  0  0  0  0  0  0  0
    2.2930   -0.6839    0.0000 O   0  0  0  0  0  0  0  0  0  0  0  0
  1  2  1  0
  2  3  1  0
  3  4  1  0
  4  5  1  0
  2  6  1  0
  6  7  2  0
  6  8  1  0
  5  2  1  0
M  END
>  <rName>  (695) 
Ac4c

>  <PQ_SYMBOL>  (695) 
Ac4c

>  <FULL_NAME>  (695) 
1-Aminocyclobutanecarboxylic acid

>  <IUPAC_CONDENSED>  (695) 
Ac4c

>  <IUPAC>  (695) 
1-aminocyclobutanecarboxylic acid

>  <TYPE>  (695) 
Backbone

>  <CLASS>  (695) 
alpha

>  <ANALOG>  (695) 
X

>  <MOL_WT>  (695) 
115.13199999999999

>  <LOGP>  (695) 
-0.04760000000000014

>  <TPSA>  (695) 
63.32000000000001

>  <POPULARITY>  (695) 
23.6

>  <PROTECTED>  (695) 
TRUE

>  <SMILES>  (695) 
NC1(CCC1)C(=O)O

>  <INCHIKEY>  (695) 
FVTVMQPGKVHSEY-UHFFFAOYSA-N

$$$$
Thz
     RDKit          2D

  8  8  0  0  0  0  0  0  0  0999 V2000
   -0.8342   -1.2135    0.0000 N   0  0  0  0  0  0  0  0  0  0  0  0
    0.0475   -0.0000    0.0000 C   0  0  0  0  0  0  0  0  0  0  0  0
   -0.8342    1.2135    0.0000 C   0  0  0  0  0  0  0  0  0  0  0  0
   -2.2608    0.7500    0.0000 S   0  0  0  0  0  0  0  0  0  0  0  0
   -2.2608   -0.7500    0.0000 C   0  0  0  0  0  0  0  0  0  0  0  0
    1.5475    0.0000    0.0000 C   0  0  0  0  0  0  0  0  0  0  0  0
    2.2975    1.2990    0.0000 O   0  0  0  0  0  0  0  0  0  0  0  0
    2.2975   -1.2990    0.0000 O   0  0  0  0  0  0  0  0  0  0  0  0
  1  2  1  0
  2  3  1  0
  3  4  1  0
  4  5  1  0
  2  6  1  1
  6  7  2  0
  6  8  1  0
  5  1  1  0
M  END
>  <rName>  (696) 
Thz

>  <PQ_SYMBOL>  (696) 
Thz

>  <FULL_NAME>  (696) 
L-Thioproline

>  <IUPAC_CONDENSED>  (696) 
Thz

>  <IUPAC>  (696) 
(4R)-thiazolidine-4-carboxylic acid

>  <TYPE>  (696) 
Backbone

>  <CLASS>  (696) 
alpha

>  <ANALOG>  (696) 
Pro

>  <MOL_WT>  (696) 
133.172

>  <LOGP>  (696) 
-0.2665

>  <TPSA>  (696) 
49.33

>  <POPULARITY>  (696) 
30.5

>  <PROTECTED>  (696) 
TRUE

>  <SMILES>  (696) 
N1[C@@H](CSC1)C(=O)O

>  <INCHIKEY>  (696) 
DZLNHFMRPBPULJ-VKHMYHEASA-N

$$$$
D-Pip
     RDKit          2D

  9  9  0  0  0  0  0  0  0  0999 V2000
    0.4167   -1.2990    0.0000 N   0  0  0  0  0  0  0  0  0  0  0  0
   -0.3333    0.0000    0.0000 C   0  0  0  0  0  0  0  0  0  0  0  0
    0.4167    1.2990    0.0000 C   0  0  0  0  0  0  0  0  0  0  0  0
    1.9167    1.2990    0.0000 C   0  0  0  0  0  0  0  0  0  0  0  0
    2.6667    0.0000    0.0000 C   0  0  0  0  0  0  0  0  0  0  0  0
    1.9167   -1.2990    0.0000 C   0  0  0  0  0  0  0  0  0  0  0  0
   -1.8333   -0.0000    0.0000 C   0  0  0  0  0  0  0  0  0  0  0  0
   -2.5833   -1.2990    0.0000 O   0  0  0  0  0  0  0  0  0  0  0  0
   -2.5833    1.2990    0.0000 O   0  0  0  0  0  0  0  0  0  0  0  0
  1  2  1  0
  2  3  1  0
  3  4  1  0
  4  5  1  0
  5  6  1  0
  2  7  1  1
  7  8  2  0
  7  9  1  0
  6  1  1  0
M  END
>  <rName>  (697) 
D-Pip

>  <PQ_SYMBOL>  (697) 
D-Pip

>  <FULL_NAME>  (697) 
D-Pipecolic acid, D-Homoproline

>  <IUPAC_CONDENSED>  (697) 
D-Pip

>  <IUPAC>  (697) 
(2R)-piperidine-2-carboxylic acid

>  <TYPE>  (697) 
Backbone

>  <CLASS>  (697) 
alpha

>  <ANALOG>  (697) 
Pro

>  <MOL_WT>  (697) 
129.15900000000002

>  <LOGP>  (697) 
0.2131

>  <TPSA>  (697) 
49.33

>  <POPULARITY>  (697) 
34.8

>  <PROTECTED>  (697) 
TRUE

>  <SMILES>  (697) 
N1[C@H](CCCC1)C(=O)O

>  <INCHIKEY>  (697) 
HXEACLLIILLPRG-RXMQYKEDSA-N

$$$$
Phe_4BO2
     RDKit          2D

 15 15  0  0  0  0  0  0  0  0999 V2000
   -2.2547    1.6872    0.0000 N   0  0  0  0  0  0  0  0  0  0  0  0
   -2.7489    0.2709    0.0000 C   0  0  0  0  0  0  0  0  0  0  0  0
   -1.7696   -0.8652    0.0000 C   0  0  0  0  0  0  0  0  0  0  0  0
   -0.2959   -0.5852    0.0000 C   0  0  0  0  0  0  0  0  0  0  0  0
    0.1983    0.8311    0.0000 C   0  0  0  0  0  0  0  0  0  0  0  0
    1.6719    1.1111    0.0000 C   0  0  0  0  0  0  0  0  0  0  0  0
    2.6513   -0.0250    0.0000 C   0  0  0  0  0  0  0  0  0  0  0  0
    2.1570   -1.4413    0.0000 C   0  0  0  0  0  0  0  0  0  0  0  0
    0.6834   -1.7213    0.0000 C   0  0  0  0  0  0  0  0  0  0  0  0
    4.1249    0.2550    0.0000 B   0  0  0  0  0  0  0  0  0  0  0  0
    5.1043   -0.8811    0.0000 O   0  0  0  0  0  0  0  0  0  0  0  0
    4.6192    1.6713    0.0000 O   0  0  0  0  0  0  0  0  0  0  0  0
   -4.2225   -0.0091    0.0000 C   0  0  0  0  0  0  0  0  0  0  0  0
   -4.7168   -1.4254    0.0000 O   0  0  0  0  0  0  0  0  0  0  0  0
   -5.2019    1.1270    0.0000 O   0  0  0  0  0  0  0  0  0  0  0  0
  2  1  1  1
  2  3  1  0
  3  4  1  0
  4  5  1  0
  5  6  2  0
  6  7  1  0
  7  8  2  0
  8  9  1  0
  7 10  1  0
 10 11  1  0
 10 12  1  0
  2 13  1  0
 13 14  2  0
 13 15  1  0
  9  4  2  0
M  END
>  <rName>  (698) 
Phe_4BO2

>  <PQ_SYMBOL>  (698) 
Phe_4BO2

>  <FULL_NAME>  (698) 
4-Borono-L-Phenylalanine

>  <IUPAC_CONDENSED>  (698) 
Phe(4-BO2)

>  <IUPAC>  (698) 
(2S)-2-amino-3-(4-(dihydroxyboryl)phenyl)propanoic acid

>  <TYPE>  (698) 
Backbone

>  <CLASS>  (698) 
alpha

>  <ANALOG>  (698) 
Phe

>  <MOL_WT>  (698) 
209.00999999999996

>  <LOGP>  (698) 
-1.6792

>  <TPSA>  (698) 
103.78000000000002

>  <POPULARITY>  (698) 
16.7

>  <PROTECTED>  (698) 
TRUE

>  <SMILES>  (698) 
N[C@@H](Cc1(ccc(cc1)B(O)O))C(=O)O

>  <INCHIKEY>  (698) 
NFIVJOSXJDORSP-QMMMGPOBSA-N

$$$$
Lys_Me3
     RDKit          2D

 13 12  0  0  0  0  0  0  0  0999 V2000
    2.7828    1.9007    0.0000 N   0  0  0  0  0  0  0  0  0  0  0  0
    2.7179    0.4021    0.0000 C   0  0  0  0  0  0  0  0  0  0  0  0
    1.3877   -0.2910    0.0000 C   0  0  0  0  0  0  0  0  0  0  0  0
    0.1223    0.5144    0.0000 C   0  0  0  0  0  0  0  0  0  0  0  0
   -1.2080   -0.1787    0.0000 C   0  0  0  0  0  0  0  0  0  0  0  0
   -2.4734    0.6267    0.0000 C   0  0  0  0  0  0  0  0  0  0  0  0
   -3.8036   -0.0664    0.0000 N   0  0  0  0  0  0  0  0  0  0  0  0
   -4.4968    1.2639    0.0000 C   0  0  0  0  0  0  0  0  0  0  0  0
   -3.1105   -1.3966    0.0000 C   0  0  0  0  0  0  0  0  0  0  0  0
   -5.1339   -0.7595    0.0000 C   0  0  0  0  0  0  0  0  0  0  0  0
    3.9833   -0.4034    0.0000 C   0  0  0  0  0  0  0  0  0  0  0  0
    3.9185   -1.9020    0.0000 O   0  0  0  0  0  0  0  0  0  0  0  0
    5.3136    0.2898    0.0000 O   0  0  0  0  0  0  0  0  0  0  0  0
  2  1  1  6
  2  3  1  0
  3  4  1  0
  4  5  1  0
  5  6  1  0
  6  7  1  0
  7  8  1  0
  7  9  1  0
  7 10  1  0
  2 11  1  0
 11 12  2  0
 11 13  1  0
M  CHG  1   7   1
M  END
>  <rName>  (699) 
Lys_Me3

>  <PQ_SYMBOL>  (699) 
Lys_Me3

>  <FULL_NAME>  (699) 
Epsilon-Trimethyl-L-Lysine

>  <IUPAC_CONDENSED>  (699) 
Lys(Me3)

>  <IUPAC>  (699) 
(2S)-2-amino-6-(trimethylammonio)hexanoic acid

>  <TYPE>  (699) 
Backbone

>  <CLASS>  (699) 
alpha

>  <ANALOG>  (699) 
Lys

>  <MOL_WT>  (699) 
189.279

>  <LOGP>  (699) 
0.27479999999999966

>  <TPSA>  (699) 
63.32000000000001

>  <POPULARITY>  (699) 
18.6

>  <PROTECTED>  (699) 
TRUE

>  <SMILES>  (699) 
N[C@@H](CCCC[N+](C)(C)C)C(=O)O

>  <INCHIKEY>  (699) 
MXNRLFUSFKVQSK-QMMMGPOBSA-O

$$$$
Lys_Me2
     RDKit          2D

 12 11  0  0  0  0  0  0  0  0999 V2000
    2.4617    1.9005    0.0000 N   0  0  0  0  0  0  0  0  0  0  0  0
    2.4001    0.4018    0.0000 C   0  0  0  0  0  0  0  0  0  0  0  0
    1.0713   -0.2943    0.0000 C   0  0  0  0  0  0  0  0  0  0  0  0
   -0.1958    0.5085    0.0000 C   0  0  0  0  0  0  0  0  0  0  0  0
   -1.5245   -0.1875    0.0000 C   0  0  0  0  0  0  0  0  0  0  0  0
   -2.7917    0.6152    0.0000 C   0  0  0  0  0  0  0  0  0  0  0  0
   -4.1204   -0.0808    0.0000 N   0  0  0  0  0  0  0  0  0  0  0  0
   -5.3876    0.7219    0.0000 C   0  0  0  0  0  0  0  0  0  0  0  0
   -4.1820   -1.5796    0.0000 C   0  0  0  0  0  0  0  0  0  0  0  0
    3.6672   -0.4010    0.0000 C   0  0  0  0  0  0  0  0  0  0  0  0
    3.6056   -1.8997    0.0000 O   0  0  0  0  0  0  0  0  0  0  0  0
    4.9960    0.2950    0.0000 O   0  0  0  0  0  0  0  0  0  0  0  0
  2  1  1  6
  2  3  1  0
  3  4  1  0
  4  5  1  0
  5  6  1  0
  6  7  1  0
  7  8  1  0
  7  9  1  0
  2 10  1  0
 10 11  2  0
 10 12  1  0
M  END
>  <rName>  (700) 
Lys_Me2

>  <PQ_SYMBOL>  (700) 
Lys_Me2

>  <FULL_NAME>  (700) 
Epsilon-Dimethyl-L-Lysine

>  <IUPAC_CONDENSED>  (700) 
Lys(Me2)

>  <IUPAC>  (700) 
(2S)-2-amino-6-(dimethylamino)hexanoic acid

>  <TYPE>  (700) 
Backbone

>  <CLASS>  (700) 
alpha

>  <ANALOG>  (700) 
Lys

>  <MOL_WT>  (700) 
174.244

>  <LOGP>  (700) 
0.13020000000000004

>  <TPSA>  (700) 
66.56

>  <POPULARITY>  (700) 
44.9

>  <PROTECTED>  (700) 
TRUE

>  <SMILES>  (700) 
N[C@@H](CCCCN(C)C)C(=O)O

>  <INCHIKEY>  (700) 
XXEWFEBMSGLYBY-ZETCQYMHSA-N

$$$$
His_1Me
     RDKit          2D

 12 12  0  0  0  0  0  0  0  0999 V2000
   -1.4659    1.6962    0.0000 N   0  0  0  0  0  0  0  0  0  0  0  0
   -1.7460    0.2226    0.0000 C   0  0  0  0  0  0  0  0  0  0  0  0
   -0.6098   -0.7568    0.0000 C   0  0  0  0  0  0  0  0  0  0  0  0
    0.8064   -0.2625    0.0000 C   0  0  0  0  0  0  0  0  0  0  0  0
    2.0387   -1.1177    0.0000 C   0  0  0  0  0  0  0  0  0  0  0  0
    3.2329   -0.2100    0.0000 N   0  0  0  0  0  0  0  0  0  0  0  0
    4.6692   -0.6425    0.0000 C   0  0  0  0  0  0  0  0  0  0  0  0
    2.7386    1.2062    0.0000 C   0  0  0  0  0  0  0  0  0  0  0  0
    1.2389    1.1738    0.0000 N   0  0  0  0  0  0  0  0  0  0  0  0
   -3.1622   -0.2717    0.0000 C   0  0  0  0  0  0  0  0  0  0  0  0
   -3.4423   -1.7453    0.0000 O   0  0  0  0  0  0  0  0  0  0  0  0
   -4.2984    0.7077    0.0000 O   0  0  0  0  0  0  0  0  0  0  0  0
  2  1  1  1
  2  3  1  0
  3  4  1  0
  4  5  2  0
  5  6  1  0
  6  7  1  0
  6  8  1  0
  8  9  2  0
  2 10  1  0
 10 11  2  0
 10 12  1  0
  9  4  1  0
M  END
>  <rName>  (701) 
His_1Me

>  <PQ_SYMBOL>  (701) 
His_1Me

>  <FULL_NAME>  (701) 
1-Methyl-L-Histidine

>  <IUPAC_CONDENSED>  (701) 
His(1-Me)

>  <IUPAC>  (701) 
(2S)-2-amino-3-(1-methyl-1H-imidazol-4-yl)propanoic acid

>  <TYPE>  (701) 
Backbone

>  <CLASS>  (701) 
alpha

>  <ANALOG>  (701) 
His

>  <MOL_WT>  (701) 
169.184

>  <LOGP>  (701) 
-0.6255000000000002

>  <TPSA>  (701) 
81.14

>  <POPULARITY>  (701) 
41

>  <PROTECTED>  (701) 
TRUE

>  <SMILES>  (701) 
N[C@@H](Cc1(cn(C)cn1))C(=O)O

>  <INCHIKEY>  (701) 
BRMWTNUJHUMWMS-LURJTMIESA-N

$$$$
Trp_7F
     RDKit          2D

 16 17  0  0  0  0  0  0  0  0999 V2000
   -2.8116   -1.7751    0.0000 N   0  0  0  0  0  0  0  0  0  0  0  0
   -2.8520   -0.2757    0.0000 C   0  0  0  0  0  0  0  0  0  0  0  0
   -1.5737    0.5091    0.0000 C   0  0  0  0  0  0  0  0  0  0  0  0
   -0.2549   -0.2056    0.0000 C   0  0  0  0  0  0  0  0  0  0  0  0
   -0.0579   -1.6926    0.0000 C   0  0  0  0  0  0  0  0  0  0  0  0
    1.4172   -1.9648    0.0000 N   0  0  0  0  0  0  0  0  0  0  0  0
    2.1319   -0.6460    0.0000 C   0  0  0  0  0  0  0  0  0  0  0  0
    3.5902   -0.2947    0.0000 C   0  0  0  0  0  0  0  0  0  0  0  0
    4.6235   -1.3820    0.0000 F   0  0  0  0  0  0  0  0  0  0  0  0
    4.0150    1.1438    0.0000 C   0  0  0  0  0  0  0  0  0  0  0  0
    2.9816    2.2311    0.0000 C   0  0  0  0  0  0  0  0  0  0  0  0
    1.5234    1.8798    0.0000 C   0  0  0  0  0  0  0  0  0  0  0  0
    1.0985    0.4412    0.0000 C   0  0  0  0  0  0  0  0  0  0  0  0
   -4.1708    0.4390    0.0000 C   0  0  0  0  0  0  0  0  0  0  0  0
   -4.2113    1.9385    0.0000 O   0  0  0  0  0  0  0  0  0  0  0  0
   -5.4491   -0.3458    0.0000 O   0  0  0  0  0  0  0  0  0  0  0  0
  2  1  1  6
  2  3  1  0
  3  4  1  0
  4  5  2  0
  5  6  1  0
  6  7  1  0
  7  8  2  0
  8  9  1  0
  8 10  1  0
 10 11  2  0
 11 12  1  0
 12 13  2  0
  2 14  1  0
 14 15  2  0
 14 16  1  0
 13  7  1  0
 13  4  1  0
M  END
>  <rName>  (702) 
Trp_7F

>  <PQ_SYMBOL>  (702) 
Trp_7F

>  <FULL_NAME>  (702) 
7-Fluoro-L-Tryptophan

>  <IUPAC_CONDENSED>  (702) 
Trp(7-F)

>  <IUPAC>  (702) 
(2S)-2-amino-3-(7-fluoro-1H-indol-3-yl)propanoic acid

>  <TYPE>  (702) 
Backbone

>  <CLASS>  (702) 
alpha

>  <ANALOG>  (702) 
Trp

>  <MOL_WT>  (702) 
222.219

>  <LOGP>  (702) 
1.2614000000000003

>  <TPSA>  (702) 
79.11

>  <POPULARITY>  (702) 
9.3

>  <PROTECTED>  (702) 
TRUE

>  <SMILES>  (702) 
N[C@@H](Cc2(c[nH]c1(c(F)cccc12)))C(=O)O

>  <INCHIKEY>  (702) 
ADMHYWIKJSPIGJ-VIFPVBQESA-N

$$$$
Dap_Me2
     RDKit          2D

  9  8  0  0  0  0  0  0  0  0999 V2000
    0.2826   -1.7410    0.0000 N   0  0  0  0  0  0  0  0  0  0  0  0
    0.5402   -0.2633    0.0000 C   0  0  0  0  0  0  0  0  0  0  0  0
   -0.6108    0.6986    0.0000 C   0  0  0  0  0  0  0  0  0  0  0  0
   -2.0193    0.1828    0.0000 N   0  0  0  0  0  0  0  0  0  0  0  0
   -3.1703    1.1447    0.0000 C   0  0  0  0  0  0  0  0  0  0  0  0
   -2.2769   -1.2950    0.0000 C   0  0  0  0  0  0  0  0  0  0  0  0
    1.9487    0.2525    0.0000 C   0  0  0  0  0  0  0  0  0  0  0  0
    2.2062    1.7302    0.0000 O   0  0  0  0  0  0  0  0  0  0  0  0
    3.0997   -0.7094    0.0000 O   0  0  0  0  0  0  0  0  0  0  0  0
  2  1  1  1
  2  3  1  0
  3  4  1  0
  4  5  1  0
  4  6  1  0
  2  7  1  0
  7  8  2  0
  7  9  1  0
M  END
>  <rName>  (703) 
Dap_Me2

>  <PQ_SYMBOL>  (703) 
Dap_Me2

>  <FULL_NAME>  (703) 
3-(Dimethylamino)-L-Alanine

>  <IUPAC_CONDENSED>  (703) 
Dap(Me2)

>  <IUPAC>  (703) 
(2S)-2-amino-3-(dimethylamino)propanoic acid

>  <TYPE>  (703) 
Backbone

>  <CLASS>  (703) 
alpha

>  <ANALOG>  (703) 
X

>  <MOL_WT>  (703) 
132.16299999999998

>  <LOGP>  (703) 
-1.0400999999999994

>  <TPSA>  (703) 
66.56

>  <POPULARITY>  (703) 
13.5

>  <PROTECTED>  (703) 
TRUE

>  <SMILES>  (703) 
N[C@@H](CN(C)C)C(=O)O

>  <INCHIKEY>  (703) 
KEZRWUUMKVVUPT-BYPYZUCNSA-N

$$$$
NMe-D-Abu
     RDKit          2D

  8  7  0  0  0  0  0  0  0  0999 V2000
   -1.2990    1.3125    0.0000 N   0  0  0  0  0  0  0  0  0  0  0  0
   -2.5981    0.5625    0.0000 C   0  0  0  0  0  0  0  0  0  0  0  0
    0.0000    0.5625    0.0000 C   0  0  0  0  0  0  0  0  0  0  0  0
    1.2990    1.3125    0.0000 C   0  0  0  0  0  0  0  0  0  0  0  0
    2.5981    0.5625    0.0000 C   0  0  0  0  0  0  0  0  0  0  0  0
    0.0000   -0.9375    0.0000 C   0  0  0  0  0  0  0  0  0  0  0  0
   -1.2990   -1.6875    0.0000 O   0  0  0  0  0  0  0  0  0  0  0  0
    1.2990   -1.6875    0.0000 O   0  0  0  0  0  0  0  0  0  0  0  0
  1  2  1  0
  1  3  1  0
  3  4  1  6
  4  5  1  0
  3  6  1  0
  6  7  2  0
  6  8  1  0
M  END
>  <rName>  (704) 
NMe-D-Abu

>  <PQ_SYMBOL>  (704) 
NMe-D-Abu

>  <FULL_NAME>  (704) 
(2R)-2-(Methylamino)butanoic acid

>  <IUPAC_CONDENSED>  (704) 
Me-D-Abu

>  <IUPAC>  (704) 
(2R)-2-(methylamino)butanoic acid

>  <TYPE>  (704) 
Backbone

>  <CLASS>  (704) 
alpha

>  <ANALOG>  (704) 
Ala

>  <MOL_WT>  (704) 
117.14799999999998

>  <LOGP>  (704) 
0.06899999999999967

>  <TPSA>  (704) 
49.33

>  <POPULARITY>  (704) 
19.1

>  <PROTECTED>  (704) 
TRUE

>  <SMILES>  (704) 
N(C)[C@H](CC)C(=O)O

>  <INCHIKEY>  (704) 
CQJAWZCYNRBZDL-SCSAIBSYSA-N

$$$$
Nip
     RDKit          2D

  9  9  0  0  0  0  0  0  0  0999 V2000
    1.9167   -1.2990    0.0000 N   0  0  0  0  0  0  0  0  0  0  0  0
    0.4167   -1.2990    0.0000 C   0  0  0  0  0  0  0  0  0  0  0  0
   -0.3333    0.0000    0.0000 C   0  0  0  0  0  0  0  0  0  0  0  0
    0.4167    1.2990    0.0000 C   0  0  0  0  0  0  0  0  0  0  0  0
    1.9167    1.2990    0.0000 C   0  0  0  0  0  0  0  0  0  0  0  0
    2.6667    0.0000    0.0000 C   0  0  0  0  0  0  0  0  0  0  0  0
   -1.8333    0.0000    0.0000 C   0  0  0  0  0  0  0  0  0  0  0  0
   -2.5833   -1.2990    0.0000 O   0  0  0  0  0  0  0  0  0  0  0  0
   -2.5833    1.2990    0.0000 O   0  0  0  0  0  0  0  0  0  0  0  0
  1  2  1  0
  2  3  1  0
  3  4  1  0
  4  5  1  0
  5  6  1  0
  3  7  1  6
  7  8  2  0
  7  9  1  0
  6  1  1  0
M  END
>  <rName>  (705) 
Nip

>  <PQ_SYMBOL>  (705) 
Nip

>  <FULL_NAME>  (705) 
(R)-Nipecotic acid

>  <IUPAC_CONDENSED>  (705) 
Nip

>  <IUPAC>  (705) 
(3R)-piperidine-3-carboxylic acid

>  <TYPE>  (705) 
Backbone

>  <CLASS>  (705) 
beta

>  <ANALOG>  (705) 
Pro

>  <MOL_WT>  (705) 
129.15900000000002

>  <LOGP>  (705) 
0.07059999999999994

>  <TPSA>  (705) 
49.33

>  <POPULARITY>  (705) 
15

>  <PROTECTED>  (705) 
TRUE

>  <SMILES>  (705) 
N1C[C@@H](CCC1)C(=O)O

>  <INCHIKEY>  (705) 
XJLSEXAGTJCILF-RXMQYKEDSA-N

$$$$
D-Gly_cPr
     RDKit          2D

  8  8  0  0  0  0  0  0  0  0999 V2000
   -0.5237   -2.0692    0.0000 N   0  0  0  0  0  0  0  0  0  0  0  0
   -0.2372   -0.5968    0.0000 C   0  0  0  0  0  0  0  0  0  0  0  0
    1.1811   -0.1087    0.0000 C   0  0  0  0  0  0  0  0  0  0  0  0
    2.6535   -0.3952    0.0000 C   0  0  0  0  0  0  0  0  0  0  0  0
    2.1655    1.0231    0.0000 C   0  0  0  0  0  0  0  0  0  0  0  0
   -1.3691    0.3875    0.0000 C   0  0  0  0  0  0  0  0  0  0  0  0
   -1.0826    1.8599    0.0000 O   0  0  0  0  0  0  0  0  0  0  0  0
   -2.7875   -0.1006    0.0000 O   0  0  0  0  0  0  0  0  0  0  0  0
  2  1  1  1
  2  3  1  0
  3  4  1  0
  4  5  1  0
  2  6  1  0
  6  7  2  0
  6  8  1  0
  5  3  1  0
M  END
>  <rName>  (706) 
D-Gly_cPr

>  <PQ_SYMBOL>  (706) 
D-Gly_cPr

>  <FULL_NAME>  (706) 
D-Cyclopropylglycine

>  <IUPAC_CONDENSED>  (706) 
D-Gly(cPr)

>  <IUPAC>  (706) 
(2R)-2-amino-2-cyclopropylacetic acid

>  <TYPE>  (706) 
Backbone

>  <CLASS>  (706) 
alpha

>  <ANALOG>  (706) 
X

>  <MOL_WT>  (706) 
115.13199999999999

>  <LOGP>  (706) 
-0.19170000000000004

>  <TPSA>  (706) 
63.32000000000001

>  <POPULARITY>  (706) 
10.7

>  <PROTECTED>  (706) 
TRUE

>  <SMILES>  (706) 
N[C@H](C1(CC1))C(=O)O

>  <INCHIKEY>  (706) 
BUSBCPMSNBMUMT-SCSAIBSYSA-N

$$$$
2-azaBCH221-3-CO2H
     RDKit          2D

 10 11  0  0  0  0  0  0  0  0999 V2000
   -0.2762    1.3664    0.0000 N   0  0  0  0  0  0  0  0  0  0  0  0
    0.4551    0.0568    0.0000 C   0  0  0  0  0  0  0  0  0  0  0  0
   -0.5645   -1.0435    0.0000 C   0  0  0  0  0  0  0  0  0  0  0  0
   -2.0360   -1.3343    0.0000 C   0  0  0  0  0  0  0  0  0  0  0  0
   -2.7673   -0.0246    0.0000 C   0  0  0  0  0  0  0  0  0  0  0  0
   -1.7477    1.0756    0.0000 C   0  0  0  0  0  0  0  0  0  0  0  0
   -0.3863    0.4459    0.0000 C   0  0  0  0  0  0  0  0  0  0  0  0
    1.9445   -0.1214    0.0000 C   0  0  0  0  0  0  0  0  0  0  0  0
    2.8435    1.0794    0.0000 O   0  0  0  0  0  0  0  0  0  0  0  0
    2.5349   -1.5003    0.0000 O   0  0  0  0  0  0  0  0  0  0  0  0
  1  2  1  0
  2  3  1  0
  3  4  1  0
  4  5  1  0
  5  6  1  0
  6  7  1  0
  2  8  1  6
  8  9  2  0
  8 10  1  0
  6  1  1  0
  7  3  1  0
M  END
>  <rName>  (707) 
2-azaBCH221-3-CO2H

>  <PQ_SYMBOL>  (707) 
2-azaBCH221-3-CO2H

>  <FULL_NAME>  (707) 
2-Azabicyclo[2.2.1]heptane-3alpha-carboxylic acid

>  <IUPAC_CONDENSED>  (707) 
2-azaBCH[2.2.1]-3-CO2H

>  <IUPAC>  (707) 
(3S)-2-azabicyclo[2.2.1]heptane-3-carboxylic acid

>  <TYPE>  (707) 
Backbone

>  <CLASS>  (707) 
alpha

>  <ANALOG>  (707) 
Pro

>  <MOL_WT>  (707) 
141.17000000000002

>  <LOGP>  (707) 
0.21149999999999974

>  <TPSA>  (707) 
49.33

>  <POPULARITY>  (707) 
7.4

>  <PROTECTED>  (707) 
TRUE

>  <SMILES>  (707) 
N1[C@@H](C2(CCC1C2))C(=O)O

>  <INCHIKEY>  (707) 
BMVVXSIHLQYXJJ-WRVKLSGPSA-N

$$$$
Phe_4Br
     RDKit          2D

 13 13  0  0  0  0  0  0  0  0999 V2000
   -1.5766    1.6851    0.0000 N   0  0  0  0  0  0  0  0  0  0  0  0
   -2.0128    0.2500    0.0000 C   0  0  0  0  0  0  0  0  0  0  0  0
   -0.9880   -0.8454    0.0000 C   0  0  0  0  0  0  0  0  0  0  0  0
    0.4730   -0.5055    0.0000 C   0  0  0  0  0  0  0  0  0  0  0  0
    0.9092    0.9296    0.0000 C   0  0  0  0  0  0  0  0  0  0  0  0
    2.3702    1.2695    0.0000 C   0  0  0  0  0  0  0  0  0  0  0  0
    3.3950    0.1741    0.0000 C   0  0  0  0  0  0  0  0  0  0  0  0
    4.8560    0.5140    0.0000 Br  0  0  0  0  0  0  0  0  0  0  0  0
    2.9588   -1.2611    0.0000 C   0  0  0  0  0  0  0  0  0  0  0  0
    1.4978   -1.6009    0.0000 C   0  0  0  0  0  0  0  0  0  0  0  0
   -3.4738   -0.0899    0.0000 C   0  0  0  0  0  0  0  0  0  0  0  0
   -3.9100   -1.5250    0.0000 O   0  0  0  0  0  0  0  0  0  0  0  0
   -4.4986    1.0055    0.0000 O   0  0  0  0  0  0  0  0  0  0  0  0
  2  1  1  1
  2  3  1  0
  3  4  1  0
  4  5  1  0
  5  6  2  0
  6  7  1  0
  7  8  1  0
  7  9  2  0
  9 10  1  0
  2 11  1  0
 11 12  2  0
 11 13  1  0
 10  4  2  0
M  END
>  <rName>  (708) 
Phe_4Br

>  <PQ_SYMBOL>  (708) 
Phe_4Br

>  <FULL_NAME>  (708) 
4-Bromo-L-Phenylalanine

>  <IUPAC_CONDENSED>  (708) 
Phe(4-Br)

>  <IUPAC>  (708) 
(2S)-2-amino-3-(4-bromophenyl)propanoic acid

>  <TYPE>  (708) 
Backbone

>  <CLASS>  (708) 
alpha

>  <ANALOG>  (708) 
Phe

>  <MOL_WT>  (708) 
244.08799999999997

>  <LOGP>  (708) 
1.4035000000000002

>  <TPSA>  (708) 
63.32000000000001

>  <POPULARITY>  (708) 
32.3

>  <PROTECTED>  (708) 
TRUE

>  <SMILES>  (708) 
N[C@@H](Cc1(ccc(Br)cc1))C(=O)O

>  <INCHIKEY>  (708) 
PEMUHKUIQHFMTH-QMMMGPOBSA-N

$$$$
bAla_3SCH2CONH2
     RDKit          2D

 10  9  0  0  0  0  0  0  0  0999 V2000
   -0.0000    1.3500    0.0000 N   0  0  0  0  0  0  0  0  0  0  0  0
   -0.0000   -0.1500    0.0000 C   0  0  0  0  0  0  0  0  0  0  0  0
   -1.2990   -0.9000    0.0000 C   0  0  0  0  0  0  0  0  0  0  0  0
   -2.5981   -0.1500    0.0000 C   0  0  0  0  0  0  0  0  0  0  0  0
   -2.5981    1.3500    0.0000 O   0  0  0  0  0  0  0  0  0  0  0  0
   -3.8971   -0.9000    0.0000 N   0  0  0  0  0  0  0  0  0  0  0  0
    1.2990   -0.9000    0.0000 C   0  0  0  0  0  0  0  0  0  0  0  0
    2.5981   -0.1500    0.0000 C   0  0  0  0  0  0  0  0  0  0  0  0
    2.5981    1.3500    0.0000 O   0  0  0  0  0  0  0  0  0  0  0  0
    3.8971   -0.9000    0.0000 O   0  0  0  0  0  0  0  0  0  0  0  0
  2  1  1  6
  2  3  1  0
  3  4  1  0
  4  5  2  0
  4  6  1  0
  2  7  1  0
  7  8  1  0
  8  9  2  0
  8 10  1  0
M  END
>  <rName>  (709) 
bAla_3SCH2CONH2

>  <PQ_SYMBOL>  (709) 
bAla_3SCH2CONH2

>  <FULL_NAME>  (709) 
Beta-L-Glutamine, Beta-L-Homoasparagine

>  <IUPAC_CONDENSED>  (709) 
bAla(3S-CH2CONH2)

>  <IUPAC>  (709) 
(3S)-3-amino-4-carbamoylbutanoic acid

>  <TYPE>  (709) 
Backbone

>  <CLASS>  (709) 
beta

>  <ANALOG>  (709) 
Asn

>  <MOL_WT>  (709) 
146.14600000000002

>  <LOGP>  (709) 
-1.3362000000000003

>  <TPSA>  (709) 
106.41000000000001

>  <POPULARITY>  (709) 
17

>  <PROTECTED>  (709) 
TRUE

>  <SMILES>  (709) 
N[C@@H](CC(=O)N)CC(=O)O

>  <INCHIKEY>  (709) 
XOYSDPUJMJWCBH-VKHMYHEASA-N

$$$$
Phe_35diF
     RDKit          2D

 14 14  0  0  0  0  0  0  0  0999 V2000
   -1.8014    1.6047    0.0000 N   0  0  0  0  0  0  0  0  0  0  0  0
   -2.1617    0.1486    0.0000 C   0  0  0  0  0  0  0  0  0  0  0  0
   -1.0809   -0.8915    0.0000 C   0  0  0  0  0  0  0  0  0  0  0  0
    0.3603   -0.4755    0.0000 C   0  0  0  0  0  0  0  0  0  0  0  0
    0.7206    0.9806    0.0000 C   0  0  0  0  0  0  0  0  0  0  0  0
    2.1617    1.3967    0.0000 C   0  0  0  0  0  0  0  0  0  0  0  0
    2.5220    2.8527    0.0000 F   0  0  0  0  0  0  0  0  0  0  0  0
    3.2426    0.3566    0.0000 C   0  0  0  0  0  0  0  0  0  0  0  0
    2.8823   -1.0995    0.0000 C   0  0  0  0  0  0  0  0  0  0  0  0
    3.9632   -2.1396    0.0000 F   0  0  0  0  0  0  0  0  0  0  0  0
    1.4412   -1.5155    0.0000 C   0  0  0  0  0  0  0  0  0  0  0  0
   -3.6029   -0.2674    0.0000 C   0  0  0  0  0  0  0  0  0  0  0  0
   -3.9632   -1.7235    0.0000 O   0  0  0  0  0  0  0  0  0  0  0  0
   -4.6837    0.7726    0.0000 O   0  0  0  0  0  0  0  0  0  0  0  0
  2  1  1  1
  2  3  1  0
  3  4  1  0
  4  5  2  0
  5  6  1  0
  6  7  1  0
  6  8  2  0
  8  9  1  0
  9 10  1  0
  9 11  2  0
  2 12  1  0
 12 13  2  0
 12 14  1  0
 11  4  1  0
M  END
>  <rName>  (710) 
Phe_35diF

>  <PQ_SYMBOL>  (710) 
Phe_35diF

>  <FULL_NAME>  (710) 
3,5-Difluoro-L-Phenylalanine

>  <IUPAC_CONDENSED>  (710) 
Phe(3,5-diF)

>  <IUPAC>  (710) 
(2S)-2-amino-3-(3,5-difluorophenyl)propanoic acid

>  <TYPE>  (710) 
Backbone

>  <CLASS>  (710) 
alpha

>  <ANALOG>  (710) 
Phe

>  <MOL_WT>  (710) 
201.17199999999997

>  <LOGP>  (710) 
0.9192

>  <TPSA>  (710) 
63.32000000000001

>  <POPULARITY>  (710) 
19.8

>  <PROTECTED>  (710) 
TRUE

>  <SMILES>  (710) 
N[C@@H](Cc1(cc(F)cc(F)c1))C(=O)O

>  <INCHIKEY>  (710) 
QFGMPXZFCIHYIR-QMMMGPOBSA-N

$$$$
His_3Me
     RDKit          2D

 12 12  0  0  0  0  0  0  0  0999 V2000
   -0.9675    1.5404    0.0000 N   0  0  0  0  0  0  0  0  0  0  0  0
   -1.3813    0.0986    0.0000 C   0  0  0  0  0  0  0  0  0  0  0  0
   -0.3395   -0.9807    0.0000 C   0  0  0  0  0  0  0  0  0  0  0  0
    1.1160   -0.6181    0.0000 C   0  0  0  0  0  0  0  0  0  0  0  0
    2.2649   -1.5825    0.0000 C   0  0  0  0  0  0  0  0  0  0  0  0
    3.5371   -0.7879    0.0000 N   0  0  0  0  0  0  0  0  0  0  0  0
    3.1745    0.6676    0.0000 C   0  0  0  0  0  0  0  0  0  0  0  0
    1.6782    0.7725    0.0000 N   0  0  0  0  0  0  0  0  0  0  0  0
    0.8836    2.0448    0.0000 C   0  0  0  0  0  0  0  0  0  0  0  0
   -2.8368   -0.2640    0.0000 C   0  0  0  0  0  0  0  0  0  0  0  0
   -3.2506   -1.7058    0.0000 O   0  0  0  0  0  0  0  0  0  0  0  0
   -3.8786    0.8152    0.0000 O   0  0  0  0  0  0  0  0  0  0  0  0
  2  1  1  1
  2  3  1  0
  3  4  1  0
  4  5  2  0
  5  6  1  0
  6  7  2  0
  7  8  1  0
  8  9  1  0
  2 10  1  0
 10 11  2  0
 10 12  1  0
  8  4  1  0
M  END
>  <rName>  (711) 
His_3Me

>  <PQ_SYMBOL>  (711) 
His_3Me

>  <FULL_NAME>  (711) 
3-Methyl-L-Histidine

>  <IUPAC_CONDENSED>  (711) 
His(3-Me)

>  <IUPAC>  (711) 
(2S)-2-amino-3-(1-methyl-1H-imidazol-5-yl)propanoic acid

>  <TYPE>  (711) 
Backbone

>  <CLASS>  (711) 
alpha

>  <ANALOG>  (711) 
His

>  <MOL_WT>  (711) 
169.184

>  <LOGP>  (711) 
-0.6255000000000002

>  <TPSA>  (711) 
81.14

>  <POPULARITY>  (711) 
33.7

>  <PROTECTED>  (711) 
TRUE

>  <SMILES>  (711) 
N[C@@H](Cc1(cncn1C))C(=O)O

>  <INCHIKEY>  (711) 
JDHILDINMRGULE-LURJTMIESA-N

$$$$
D-Ser_Me
     RDKit          2D

  8  7  0  0  0  0  0  0  0  0999 V2000
   -0.2517   -1.8862    0.0000 N   0  0  0  0  0  0  0  0  0  0  0  0
   -0.3100   -0.3873    0.0000 C   0  0  0  0  0  0  0  0  0  0  0  0
    0.9590    0.4126    0.0000 C   0  0  0  0  0  0  0  0  0  0  0  0
    2.2862   -0.2864    0.0000 O   0  0  0  0  0  0  0  0  0  0  0  0
    3.5551    0.5134    0.0000 C   0  0  0  0  0  0  0  0  0  0  0  0
   -1.6371    0.3117    0.0000 C   0  0  0  0  0  0  0  0  0  0  0  0
   -1.6954    1.8105    0.0000 O   0  0  0  0  0  0  0  0  0  0  0  0
   -2.9061   -0.4882    0.0000 O   0  0  0  0  0  0  0  0  0  0  0  0
  2  1  1  1
  2  3  1  0
  3  4  1  0
  4  5  1  0
  2  6  1  0
  6  7  2  0
  6  8  1  0
M  END
>  <rName>  (712) 
D-Ser_Me

>  <PQ_SYMBOL>  (712) 
D-Ser_Me

>  <FULL_NAME>  (712) 
O-Methyl-D-Serine

>  <IUPAC_CONDENSED>  (712) 
D-Ser(Me)

>  <IUPAC>  (712) 
(2R)-2-amino-3-methoxypropanoic acid

>  <TYPE>  (712) 
Backbone

>  <CLASS>  (712) 
alpha

>  <ANALOG>  (712) 
Ser

>  <MOL_WT>  (712) 
119.11999999999998

>  <LOGP>  (712) 
-0.9552999999999998

>  <TPSA>  (712) 
72.55

>  <POPULARITY>  (712) 
14.3

>  <PROTECTED>  (712) 
TRUE

>  <SMILES>  (712) 
N[C@H](COC)C(=O)O

>  <INCHIKEY>  (712) 
KNTFCRCCPLEUQZ-GSVOUGTGSA-N

$$$$
Phe_35diCl
     RDKit          2D

 14 14  0  0  0  0  0  0  0  0999 V2000
   -1.8014    1.6047    0.0000 N   0  0  0  0  0  0  0  0  0  0  0  0
   -2.1617    0.1486    0.0000 C   0  0  0  0  0  0  0  0  0  0  0  0
   -1.0809   -0.8915    0.0000 C   0  0  0  0  0  0  0  0  0  0  0  0
    0.3603   -0.4755    0.0000 C   0  0  0  0  0  0  0  0  0  0  0  0
    0.7206    0.9806    0.0000 C   0  0  0  0  0  0  0  0  0  0  0  0
    2.1617    1.3967    0.0000 C   0  0  0  0  0  0  0  0  0  0  0  0
    2.5220    2.8527    0.0000 Cl  0  0  0  0  0  0  0  0  0  0  0  0
    3.2426    0.3566    0.0000 C   0  0  0  0  0  0  0  0  0  0  0  0
    2.8823   -1.0995    0.0000 C   0  0  0  0  0  0  0  0  0  0  0  0
    3.9632   -2.1396    0.0000 Cl  0  0  0  0  0  0  0  0  0  0  0  0
    1.4412   -1.5155    0.0000 C   0  0  0  0  0  0  0  0  0  0  0  0
   -3.6029   -0.2674    0.0000 C   0  0  0  0  0  0  0  0  0  0  0  0
   -3.9632   -1.7235    0.0000 O   0  0  0  0  0  0  0  0  0  0  0  0
   -4.6837    0.7726    0.0000 O   0  0  0  0  0  0  0  0  0  0  0  0
  2  1  1  1
  2  3  1  0
  3  4  1  0
  4  5  2  0
  5  6  1  0
  6  7  1  0
  6  8  2  0
  8  9  1  0
  9 10  1  0
  9 11  2  0
  2 12  1  0
 12 13  2  0
 12 14  1  0
 11  4  1  0
M  END
>  <rName>  (713) 
Phe_35diCl

>  <PQ_SYMBOL>  (713) 
Phe_35diCl

>  <FULL_NAME>  (713) 
3,5-Dichloro-L-Phenylalanine

>  <IUPAC_CONDENSED>  (713) 
Phe(3,5-diCl)

>  <IUPAC>  (713) 
(2S)-2-amino-3-(3,5-dichlorophenyl)propanoic acid

>  <TYPE>  (713) 
Backbone

>  <CLASS>  (713) 
alpha

>  <ANALOG>  (713) 
Phe

>  <MOL_WT>  (713) 
234.082

>  <LOGP>  (713) 
1.9478

>  <TPSA>  (713) 
63.32000000000001

>  <POPULARITY>  (713) 
6.8

>  <PROTECTED>  (713) 
TRUE

>  <SMILES>  (713) 
N[C@@H](Cc1(cc(Cl)cc(Cl)c1))C(=O)O

>  <INCHIKEY>  (713) 
UAODYKLBUMXKDC-QMMMGPOBSA-N

$$$$
D-bhaThr
     RDKit          2D

  9  8  0  0  0  0  0  0  0  0999 V2000
    0.2826    1.7410    0.0000 N   0  0  0  0  0  0  0  0  0  0  0  0
    0.5402    0.2633    0.0000 C   0  0  0  0  0  0  0  0  0  0  0  0
    1.9487   -0.2525    0.0000 C   0  0  0  0  0  0  0  0  0  0  0  0
    2.2062   -1.7302    0.0000 O   0  0  0  0  0  0  0  0  0  0  0  0
    3.0997    0.7094    0.0000 C   0  0  0  0  0  0  0  0  0  0  0  0
   -0.6108   -0.6986    0.0000 C   0  0  0  0  0  0  0  0  0  0  0  0
   -2.0193   -0.1828    0.0000 C   0  0  0  0  0  0  0  0  0  0  0  0
   -2.2769    1.2950    0.0000 O   0  0  0  0  0  0  0  0  0  0  0  0
   -3.1703   -1.1447    0.0000 O   0  0  0  0  0  0  0  0  0  0  0  0
  2  1  1  6
  2  3  1  0
  3  4  1  0
  3  5  1  6
  2  6  1  0
  6  7  1  0
  7  8  2  0
  7  9  1  0
M  END
>  <rName>  (714) 
D-bhaThr

>  <PQ_SYMBOL>  (714) 
D-bhaThr

>  <FULL_NAME>  (714) 
D-Beta-Homoallothreonine, (3S,4S)-Beta-Homoallothreonine

>  <IUPAC_CONDENSED>  (714) 
D-bhaThr

>  <IUPAC>  (714) 
(3S,4S)-3-amino-4-hydroxypentanoic acid

>  <TYPE>  (714) 
Backbone

>  <CLASS>  (714) 
beta

>  <ANALOG>  (714) 
Thr

>  <MOL_WT>  (714) 
133.14700000000002

>  <LOGP>  (714) 
-0.8308000000000006

>  <TPSA>  (714) 
83.55

>  <POPULARITY>  (714) 
8.7

>  <PROTECTED>  (714) 
TRUE

>  <SMILES>  (714) 
N[C@H]([C@@H](O)C)CC(=O)O

>  <INCHIKEY>  (714) 
NIVRJEWVLMOZNV-IMJSIDKUSA-N

$$$$
D-Thr_PO3H2
     RDKit          2D

 12 11  0  0  0  0  0  0  0  0999 V2000
   -0.0306   -1.5204    0.0000 N   0  0  0  0  0  0  0  0  0  0  0  0
   -0.8599   -0.2705    0.0000 C   0  0  0  0  0  0  0  0  0  0  0  0
   -0.1920    1.0727    0.0000 C   0  0  0  0  0  0  0  0  0  0  0  0
    1.3051    1.1659    0.0000 O   0  0  0  0  0  0  0  0  0  0  0  0
    2.1343   -0.0841    0.0000 P   0  0  0  0  0  0  0  0  0  0  0  0
    3.3843    0.7452    0.0000 O   0  0  0  0  0  0  0  0  0  0  0  0
    0.8844   -0.9133    0.0000 O   0  0  0  0  0  0  0  0  0  0  0  0
    2.9636   -1.3340    0.0000 O   0  0  0  0  0  0  0  0  0  0  0  0
   -1.0213    2.3226    0.0000 C   0  0  0  0  0  0  0  0  0  0  0  0
   -2.3570   -0.3637    0.0000 C   0  0  0  0  0  0  0  0  0  0  0  0
   -3.1862    0.8863    0.0000 O   0  0  0  0  0  0  0  0  0  0  0  0
   -3.0248   -1.7068    0.0000 O   0  0  0  0  0  0  0  0  0  0  0  0
  2  1  1  1
  2  3  1  0
  3  4  1  0
  4  5  1  0
  5  6  2  0
  5  7  1  0
  5  8  1  0
  3  9  1  6
  2 10  1  0
 10 11  2  0
 10 12  1  0
M  END
>  <rName>  (715) 
D-Thr_PO3H2

>  <PQ_SYMBOL>  (715) 
D-Thr_PO3H2

>  <FULL_NAME>  (715) 
O-Phospho-D-Threonine, (2R,3S)-O-Phosphono-Threonine

>  <IUPAC_CONDENSED>  (715) 
D-Thr(PO3H2)

>  <IUPAC>  (715) 
(2S,3R)-3-amino-4-hydroxy-4-oxobutan-2-yl dihydrogen phosphate

>  <TYPE>  (715) 
Backbone

>  <CLASS>  (715) 
alpha

>  <ANALOG>  (715) 
Thr

>  <MOL_WT>  (715) 
199.099

>  <LOGP>  (715) 
-1.1039000000000005

>  <TPSA>  (715) 
130.07999999999998

>  <POPULARITY>  (715) 
10.6

>  <PROTECTED>  (715) 
TRUE

>  <SMILES>  (715) 
N[C@H]([C@@H](OP(=O)(O)O)C)C(=O)O

>  <INCHIKEY>  (715) 
USRGIUJOYOXOQJ-STHAYSLISA-N

$$$$
Pro_4Samino
     RDKit          2D

  9  9  0  0  0  0  0  0  0  0999 V2000
   -0.1792   -1.4541    0.0000 N   0  0  0  0  0  0  0  0  0  0  0  0
    0.4598   -0.0969    0.0000 C   0  0  0  0  0  0  0  0  0  0  0  0
   -0.6334    0.9301    0.0000 C   0  0  0  0  0  0  0  0  0  0  0  0
   -1.9481    0.2077    0.0000 C   0  0  0  0  0  0  0  0  0  0  0  0
   -3.3052    0.8467    0.0000 N   0  0  0  0  0  0  0  0  0  0  0  0
   -1.6673   -1.2657    0.0000 C   0  0  0  0  0  0  0  0  0  0  0  0
    1.9333    0.1838    0.0000 C   0  0  0  0  0  0  0  0  0  0  0  0
    2.4269    1.6003    0.0000 O   0  0  0  0  0  0  0  0  0  0  0  0
    2.9132   -0.9519    0.0000 O   0  0  0  0  0  0  0  0  0  0  0  0
  1  2  1  0
  2  3  1  0
  3  4  1  0
  4  5  1  1
  4  6  1  0
  2  7  1  1
  7  8  2  0
  7  9  1  0
  6  1  1  0
M  END
>  <rName>  (716) 
Pro_4Samino

>  <PQ_SYMBOL>  (716) 
Pro_4Samino

>  <FULL_NAME>  (716) 
(4S)-4-Amino-L-Proline

>  <IUPAC_CONDENSED>  (716) 
Pro(4S-amino)

>  <IUPAC>  (716) 
(2S,4S)-4-aminopyrrolidine-2-carboxylic acid

>  <TYPE>  (716) 
Backbone

>  <CLASS>  (716) 
alpha

>  <ANALOG>  (716) 
Pro

>  <MOL_WT>  (716) 
130.14700000000002

>  <LOGP>  (716) 
-1.2397999999999993

>  <TPSA>  (716) 
75.35

>  <POPULARITY>  (716) 
23.5

>  <PROTECTED>  (716) 
TRUE

>  <SMILES>  (716) 
N1[C@@H](C[C@H](N)C1)C(=O)O

>  <INCHIKEY>  (716) 
SHINASQYHDCLEU-IMJSIDKUSA-N

$$$$
Asn_Me
     RDKit          2D

 10  9  0  0  0  0  0  0  0  0999 V2000
    0.8391   -1.7602    0.0000 N   0  0  0  0  0  0  0  0  0  0  0  0
    1.0145   -0.2705    0.0000 C   0  0  0  0  0  0  0  0  0  0  0  0
   -0.1878    0.6263    0.0000 C   0  0  0  0  0  0  0  0  0  0  0  0
   -1.5657    0.0334    0.0000 C   0  0  0  0  0  0  0  0  0  0  0  0
   -1.7412   -1.4563    0.0000 O   0  0  0  0  0  0  0  0  0  0  0  0
   -2.7681    0.9302    0.0000 N   0  0  0  0  0  0  0  0  0  0  0  0
   -4.1459    0.3373    0.0000 C   0  0  0  0  0  0  0  0  0  0  0  0
    2.3924    0.3223    0.0000 C   0  0  0  0  0  0  0  0  0  0  0  0
    2.5679    1.8120    0.0000 O   0  0  0  0  0  0  0  0  0  0  0  0
    3.5948   -0.5745    0.0000 O   0  0  0  0  0  0  0  0  0  0  0  0
  2  1  1  1
  2  3  1  0
  3  4  1  0
  4  5  2  0
  4  6  1  0
  6  7  1  0
  2  8  1  0
  8  9  2  0
  8 10  1  0
M  END
>  <rName>  (717) 
Asn_Me

>  <PQ_SYMBOL>  (717) 
Asn_Me

>  <FULL_NAME>  (717) 
N4-Methyl-L-Asparagine

>  <IUPAC_CONDENSED>  (717) 
Asn(Me)

>  <IUPAC>  (717) 
(2S)-2-amino-3-(methylcarbamoyl)propanoic acid

>  <TYPE>  (717) 
Backbone

>  <CLASS>  (717) 
alpha

>  <ANALOG>  (717) 
Asn

>  <MOL_WT>  (717) 
146.146

>  <LOGP>  (717) 
-1.4655999999999998

>  <TPSA>  (717) 
92.42

>  <POPULARITY>  (717) 
33.4

>  <PROTECTED>  (717) 
TRUE

>  <SMILES>  (717) 
N[C@@H](CC(=O)NC)C(=O)O

>  <INCHIKEY>  (717) 
CFRMVEKWKKDNAH-VKHMYHEASA-N

$$$$
Tyr_Me
     RDKit          2D

 14 14  0  0  0  0  0  0  0  0999 V2000
   -2.0397    1.6757    0.0000 N   0  0  0  0  0  0  0  0  0  0  0  0
   -2.4395    0.2299    0.0000 C   0  0  0  0  0  0  0  0  0  0  0  0
   -1.3873   -0.8392    0.0000 C   0  0  0  0  0  0  0  0  0  0  0  0
    0.0646   -0.4625    0.0000 C   0  0  0  0  0  0  0  0  0  0  0  0
    0.4644    0.9832    0.0000 C   0  0  0  0  0  0  0  0  0  0  0  0
    1.9164    1.3598    0.0000 C   0  0  0  0  0  0  0  0  0  0  0  0
    2.9685    0.2907    0.0000 C   0  0  0  0  0  0  0  0  0  0  0  0
    4.4205    0.6674    0.0000 O   0  0  0  0  0  0  0  0  0  0  0  0
    5.4726   -0.4017    0.0000 C   0  0  0  0  0  0  0  0  0  0  0  0
    2.5687   -1.1550    0.0000 C   0  0  0  0  0  0  0  0  0  0  0  0
    1.1168   -1.5316    0.0000 C   0  0  0  0  0  0  0  0  0  0  0  0
   -3.8914   -0.1467    0.0000 C   0  0  0  0  0  0  0  0  0  0  0  0
   -4.2912   -1.5924    0.0000 O   0  0  0  0  0  0  0  0  0  0  0  0
   -4.9436    0.9224    0.0000 O   0  0  0  0  0  0  0  0  0  0  0  0
  2  1  1  1
  2  3  1  0
  3  4  1  0
  4  5  1  0
  5  6  2  0
  6  7  1  0
  7  8  1  0
  8  9  1  0
  7 10  2  0
 10 11  1  0
  2 12  1  0
 12 13  2  0
 12 14  1  0
 11  4  2  0
M  END
>  <rName>  (718) 
Tyr_Me

>  <PQ_SYMBOL>  (718) 
Tyr_Me

>  <FULL_NAME>  (718) 
O-Methyl-L-Tyrosine

>  <IUPAC_CONDENSED>  (718) 
Tyr(Me)

>  <IUPAC>  (718) 
(2S)-2-amino-3-(4-methoxyphenyl)propanoic acid

>  <TYPE>  (718) 
Backbone

>  <CLASS>  (718) 
alpha

>  <ANALOG>  (718) 
Tyr

>  <MOL_WT>  (718) 
195.218

>  <LOGP>  (718) 
0.6496

>  <TPSA>  (718) 
72.55

>  <POPULARITY>  (718) 
39.4

>  <PROTECTED>  (718) 
TRUE

>  <SMILES>  (718) 
N[C@@H](Cc1(ccc(OC)cc1))C(=O)O

>  <INCHIKEY>  (718) 
GEYBMYRBIABFTA-VIFPVBQESA-N

$$$$
D-Trp_6F
     RDKit          2D

 16 17  0  0  0  0  0  0  0  0999 V2000
   -3.0545   -1.6426    0.0000 N   0  0  0  0  0  0  0  0  0  0  0  0
   -2.9369   -0.1473    0.0000 C   0  0  0  0  0  0  0  0  0  0  0  0
   -1.5831    0.4986    0.0000 C   0  0  0  0  0  0  0  0  0  0  0  0
   -0.3468   -0.3509    0.0000 C   0  0  0  0  0  0  0  0  0  0  0  0
   -0.3075   -1.8504    0.0000 C   0  0  0  0  0  0  0  0  0  0  0  0
    1.1308   -2.2763    0.0000 N   0  0  0  0  0  0  0  0  0  0  0  0
    1.9803   -1.0400    0.0000 C   0  0  0  0  0  0  0  0  0  0  0  0
    3.4675   -0.8441    0.0000 C   0  0  0  0  0  0  0  0  0  0  0  0
    4.0414    0.5417    0.0000 C   0  0  0  0  0  0  0  0  0  0  0  0
    5.5285    0.7376    0.0000 F   0  0  0  0  0  0  0  0  0  0  0  0
    3.1281    1.7317    0.0000 C   0  0  0  0  0  0  0  0  0  0  0  0
    1.6410    1.5358    0.0000 C   0  0  0  0  0  0  0  0  0  0  0  0
    1.0671    0.1499    0.0000 C   0  0  0  0  0  0  0  0  0  0  0  0
   -4.1732    0.7023    0.0000 C   0  0  0  0  0  0  0  0  0  0  0  0
   -4.0556    2.1976    0.0000 O   0  0  0  0  0  0  0  0  0  0  0  0
   -5.5270    0.0564    0.0000 O   0  0  0  0  0  0  0  0  0  0  0  0
  2  1  1  1
  2  3  1  0
  3  4  1  0
  4  5  2  0
  5  6  1  0
  6  7  1  0
  7  8  1  0
  8  9  2  0
  9 10  1  0
  9 11  1  0
 11 12  2  0
 12 13  1  0
  2 14  1  0
 14 15  2  0
 14 16  1  0
 13  4  1  0
 13  7  2  0
M  END
>  <rName>  (719) 
D-Trp_6F

>  <PQ_SYMBOL>  (719) 
D-Trp_6F

>  <FULL_NAME>  (719) 
6-Fluoro-D-Tryptophan

>  <IUPAC_CONDENSED>  (719) 
D-Trp(6-F)

>  <IUPAC>  (719) 
(2R)-2-amino-3-(6-fluoro-1H-indol-3-yl)propanoic acid

>  <TYPE>  (719) 
Backbone

>  <CLASS>  (719) 
alpha

>  <ANALOG>  (719) 
Trp

>  <MOL_WT>  (719) 
222.21899999999997

>  <LOGP>  (719) 
1.2614000000000003

>  <TPSA>  (719) 
79.11

>  <POPULARITY>  (719) 
12.3

>  <PROTECTED>  (719) 
TRUE

>  <SMILES>  (719) 
N[C@H](Cc1(c[nH]c2(cc(F)ccc12)))C(=O)O

>  <INCHIKEY>  (719) 
YMEXGEAJNZRQEH-SECBINFHSA-N

$$$$
Phe_34diF
     RDKit          2D

 14 14  0  0  0  0  0  0  0  0999 V2000
   -2.0094    1.6916    0.0000 N   0  0  0  0  0  0  0  0  0  0  0  0
   -2.3243    0.2250    0.0000 C   0  0  0  0  0  0  0  0  0  0  0  0
   -1.2116   -0.7809    0.0000 C   0  0  0  0  0  0  0  0  0  0  0  0
    0.2159   -0.3203    0.0000 C   0  0  0  0  0  0  0  0  0  0  0  0
    0.5308    1.1463    0.0000 C   0  0  0  0  0  0  0  0  0  0  0  0
    1.9583    1.6069    0.0000 C   0  0  0  0  0  0  0  0  0  0  0  0
    3.0710    0.6009    0.0000 C   0  0  0  0  0  0  0  0  0  0  0  0
    4.4985    1.0615    0.0000 F   0  0  0  0  0  0  0  0  0  0  0  0
    2.7561   -0.8657    0.0000 C   0  0  0  0  0  0  0  0  0  0  0  0
    3.8688   -1.8716    0.0000 F   0  0  0  0  0  0  0  0  0  0  0  0
    1.3286   -1.3263    0.0000 C   0  0  0  0  0  0  0  0  0  0  0  0
   -3.7518   -0.2356    0.0000 C   0  0  0  0  0  0  0  0  0  0  0  0
   -4.0666   -1.7022    0.0000 O   0  0  0  0  0  0  0  0  0  0  0  0
   -4.8644    0.7704    0.0000 O   0  0  0  0  0  0  0  0  0  0  0  0
  2  1  1  1
  2  3  1  0
  3  4  1  0
  4  5  1  0
  5  6  2  0
  6  7  1  0
  7  8  1  0
  7  9  2  0
  9 10  1  0
  9 11  1  0
  2 12  1  0
 12 13  2  0
 12 14  1  0
 11  4  2  0
M  END
>  <rName>  (720) 
Phe_34diF

>  <PQ_SYMBOL>  (720) 
Phe_34diF

>  <FULL_NAME>  (720) 
3,4-Difluoro-L-Phenylalanine

>  <IUPAC_CONDENSED>  (720) 
Phe(3,4-diF)

>  <IUPAC>  (720) 
(2S)-2-amino-3-(3,4-difluorophenyl)propanoic acid

>  <TYPE>  (720) 
Backbone

>  <CLASS>  (720) 
alpha

>  <ANALOG>  (720) 
Phe

>  <MOL_WT>  (720) 
201.17199999999997

>  <LOGP>  (720) 
0.9192

>  <TPSA>  (720) 
63.32000000000001

>  <POPULARITY>  (720) 
13.3

>  <PROTECTED>  (720) 
TRUE

>  <SMILES>  (720) 
N[C@@H](Cc1(ccc(F)c(F)c1))C(=O)O

>  <INCHIKEY>  (720) 
PRAWYXDDKCVZTL-QMMMGPOBSA-N

$$$$
D-Phe_34diF
     RDKit          2D

 14 14  0  0  0  0  0  0  0  0999 V2000
   -2.0094    1.6916    0.0000 N   0  0  0  0  0  0  0  0  0  0  0  0
   -2.3243    0.2250    0.0000 C   0  0  0  0  0  0  0  0  0  0  0  0
   -1.2116   -0.7809    0.0000 C   0  0  0  0  0  0  0  0  0  0  0  0
    0.2159   -0.3203    0.0000 C   0  0  0  0  0  0  0  0  0  0  0  0
    0.5308    1.1463    0.0000 C   0  0  0  0  0  0  0  0  0  0  0  0
    1.9583    1.6069    0.0000 C   0  0  0  0  0  0  0  0  0  0  0  0
    3.0710    0.6009    0.0000 C   0  0  0  0  0  0  0  0  0  0  0  0
    4.4985    1.0615    0.0000 F   0  0  0  0  0  0  0  0  0  0  0  0
    2.7561   -0.8657    0.0000 C   0  0  0  0  0  0  0  0  0  0  0  0
    3.8688   -1.8716    0.0000 F   0  0  0  0  0  0  0  0  0  0  0  0
    1.3286   -1.3263    0.0000 C   0  0  0  0  0  0  0  0  0  0  0  0
   -3.7518   -0.2356    0.0000 C   0  0  0  0  0  0  0  0  0  0  0  0
   -4.0666   -1.7022    0.0000 O   0  0  0  0  0  0  0  0  0  0  0  0
   -4.8644    0.7704    0.0000 O   0  0  0  0  0  0  0  0  0  0  0  0
  2  1  1  6
  2  3  1  0
  3  4  1  0
  4  5  1  0
  5  6  2  0
  6  7  1  0
  7  8  1  0
  7  9  2  0
  9 10  1  0
  9 11  1  0
  2 12  1  0
 12 13  2  0
 12 14  1  0
 11  4  2  0
M  END
>  <rName>  (721) 
D-Phe_34diF

>  <PQ_SYMBOL>  (721) 
D-Phe_34diF

>  <FULL_NAME>  (721) 
3,4-Difluoro-D-Phenylalanine

>  <IUPAC_CONDENSED>  (721) 
D-Phe(3,4-diF)

>  <IUPAC>  (721) 
(2R)-2-amino-3-(3,4-difluorophenyl)propanoic acid

>  <TYPE>  (721) 
Backbone

>  <CLASS>  (721) 
alpha

>  <ANALOG>  (721) 
Phe

>  <MOL_WT>  (721) 
201.17199999999997

>  <LOGP>  (721) 
0.9192

>  <TPSA>  (721) 
63.32000000000001

>  <POPULARITY>  (721) 
11.9

>  <PROTECTED>  (721) 
TRUE

>  <SMILES>  (721) 
N[C@H](Cc1(ccc(F)c(F)c1))C(=O)O

>  <INCHIKEY>  (721) 
PRAWYXDDKCVZTL-MRVPVSSYSA-N

$$$$
Ala_N3
     RDKit          2D

  9  8  0  0  0  0  0  0  0  0999 V2000
    1.0341    1.9185    0.0000 N   0  0  0  0  0  0  0  0  0  0  0  0
    0.9057    0.4240    0.0000 C   0  0  0  0  0  0  0  0  0  0  0  0
   -0.4528   -0.2120    0.0000 C   0  0  0  0  0  0  0  0  0  0  0  0
   -1.6829    0.6465    0.0000 N   0  0  0  0  0  0  0  0  0  0  0  0
   -3.0414    0.0105    0.0000 N   0  0  0  0  0  0  0  0  0  0  0  0
   -4.3999   -0.6255    0.0000 N   0  0  0  0  0  0  0  0  0  0  0  0
    2.1357   -0.4345    0.0000 C   0  0  0  0  0  0  0  0  0  0  0  0
    2.0072   -1.9290    0.0000 O   0  0  0  0  0  0  0  0  0  0  0  0
    3.4942    0.2015    0.0000 O   0  0  0  0  0  0  0  0  0  0  0  0
  2  1  1  6
  2  3  1  0
  3  4  1  0
  4  5  2  0
  5  6  2  0
  2  7  1  0
  7  8  2  0
  7  9  1  0
M  CHG  2   5   1   6  -1
M  END
>  <rName>  (722) 
Ala_N3

>  <PQ_SYMBOL>  (722) 
Ala_N3

>  <FULL_NAME>  (722) 
3-Azido-L-Alanine

>  <IUPAC_CONDENSED>  (722) 
Ala(N3)

>  <IUPAC>  (722) 
(2S)-2-amino-3-azidopropanoic acid

>  <TYPE>  (722) 
Backbone

>  <CLASS>  (722) 
alpha

>  <ANALOG>  (722) 
X

>  <MOL_WT>  (722) 
130.107

>  <LOGP>  (722) 
-0.29140000000000016

>  <TPSA>  (722) 
112.08

>  <POPULARITY>  (722) 
7.5

>  <PROTECTED>  (722) 
TRUE

>  <SMILES>  (722) 
N[C@@H](CN=[N+]=[N-])C(=O)O

>  <INCHIKEY>  (722) 
CIFCKCQAKQRJFC-REOHCLBHSA-N

$$$$
bhArg
     RDKit          2D

 13 12  0  0  0  0  0  0  0  0999 V2000
    1.9669   -1.5369    0.0000 N   0  0  0  0  0  0  0  0  0  0  0  0
    1.8129   -0.0449    0.0000 C   0  0  0  0  0  0  0  0  0  0  0  0
    0.4437    0.5678    0.0000 C   0  0  0  0  0  0  0  0  0  0  0  0
   -0.7715   -0.3116    0.0000 C   0  0  0  0  0  0  0  0  0  0  0  0
   -2.1407    0.3010    0.0000 C   0  0  0  0  0  0  0  0  0  0  0  0
   -3.3558   -0.5784    0.0000 N   0  0  0  0  0  0  0  0  0  0  0  0
   -4.7250    0.0342    0.0000 C   0  0  0  0  0  0  0  0  0  0  0  0
   -4.8790    1.5263    0.0000 N   0  0  0  0  0  0  0  0  0  0  0  0
   -5.9402   -0.8452    0.0000 N   0  0  0  0  0  0  0  0  0  0  0  0
    3.0280    0.8346    0.0000 C   0  0  0  0  0  0  0  0  0  0  0  0
    4.3972    0.2219    0.0000 C   0  0  0  0  0  0  0  0  0  0  0  0
    4.5512   -1.2702    0.0000 O   0  0  0  0  0  0  0  0  0  0  0  0
    5.6124    1.1013    0.0000 O   0  0  0  0  0  0  0  0  0  0  0  0
  2  1  1  1
  2  3  1  0
  3  4  1  0
  4  5  1  0
  5  6  1  0
  6  7  1  0
  7  8  2  0
  7  9  1  0
  2 10  1  0
 10 11  1  0
 11 12  2  0
 11 13  1  0
M  END
>  <rName>  (723) 
bhArg

>  <PQ_SYMBOL>  (723) 
bhArg

>  <FULL_NAME>  (723) 
Beta-Homoarginine, (S)-3-amino-6-Guanidinohexanoic acid

>  <IUPAC_CONDENSED>  (723) 
bhArg

>  <IUPAC>  (723) 
(3S)-3-amino-6-(((amino)(imino)methyl)amino)hexanoic acid

>  <TYPE>  (723) 
Backbone

>  <CLASS>  (723) 
beta

>  <ANALOG>  (723) 
Arg

>  <MOL_WT>  (723) 
188.231

>  <LOGP>  (723) 
-0.948329999999999

>  <TPSA>  (723) 
125.22000000000001

>  <POPULARITY>  (723) 
21.8

>  <PROTECTED>  (723) 
TRUE

>  <SMILES>  (723) 
N[C@@H](CCCNC(=N)N)CC(=O)O

>  <INCHIKEY>  (723) 
VNWXCGKMEWXYBP-YFKPBYRVSA-N

$$$$
hGln
     RDKit          2D

 11 10  0  0  0  0  0  0  0  0999 V2000
   -1.6269    1.8430    0.0000 N   0  0  0  0  0  0  0  0  0  0  0  0
   -1.7489    0.3480    0.0000 C   0  0  0  0  0  0  0  0  0  0  0  0
   -0.5152   -0.5052    0.0000 C   0  0  0  0  0  0  0  0  0  0  0  0
    0.8406    0.1366    0.0000 C   0  0  0  0  0  0  0  0  0  0  0  0
    2.0743   -0.7166    0.0000 C   0  0  0  0  0  0  0  0  0  0  0  0
    3.4300   -0.0748    0.0000 C   0  0  0  0  0  0  0  0  0  0  0  0
    3.5521    1.4203    0.0000 O   0  0  0  0  0  0  0  0  0  0  0  0
    4.6637   -0.9280    0.0000 N   0  0  0  0  0  0  0  0  0  0  0  0
   -3.1047   -0.2938    0.0000 C   0  0  0  0  0  0  0  0  0  0  0  0
   -3.2267   -1.7889    0.0000 O   0  0  0  0  0  0  0  0  0  0  0  0
   -4.3384    0.5594    0.0000 O   0  0  0  0  0  0  0  0  0  0  0  0
  2  1  1  1
  2  3  1  0
  3  4  1  0
  4  5  1  0
  5  6  1  0
  6  7  2  0
  6  8  1  0
  2  9  1  0
  9 10  2  0
  9 11  1  0
M  END
>  <rName>  (724) 
hGln

>  <PQ_SYMBOL>  (724) 
hGln

>  <FULL_NAME>  (724) 
Homo-L-Glutamine

>  <IUPAC_CONDENSED>  (724) 
hGln

>  <IUPAC>  (724) 
(2S)-2-amino-5-carbamoylpentanoic acid

>  <TYPE>  (724) 
Backbone

>  <CLASS>  (724) 
alpha

>  <ANALOG>  (724) 
Lys

>  <MOL_WT>  (724) 
160.173

>  <LOGP>  (724) 
-0.9460999999999993

>  <TPSA>  (724) 
106.41000000000001

>  <POPULARITY>  (724) 
9.1

>  <PROTECTED>  (724) 
TRUE

>  <SMILES>  (724) 
N[C@@H](CCCC(=O)N)C(=O)O

>  <INCHIKEY>  (724) 
YZJSUQQZGCHHNQ-BYPYZUCNSA-N

$$$$
bAla_3SEtCONH2
     RDKit          2D

 11 10  0  0  0  0  0  0  0  0999 V2000
    0.8169   -1.6084    0.0000 N   0  0  0  0  0  0  0  0  0  0  0  0
    0.6128   -0.1223    0.0000 C   0  0  0  0  0  0  0  0  0  0  0  0
   -0.7762    0.4440    0.0000 C   0  0  0  0  0  0  0  0  0  0  0  0
   -1.9611   -0.4758    0.0000 C   0  0  0  0  0  0  0  0  0  0  0  0
   -3.3501    0.0905    0.0000 C   0  0  0  0  0  0  0  0  0  0  0  0
   -3.5542    1.5766    0.0000 O   0  0  0  0  0  0  0  0  0  0  0  0
   -4.5350   -0.8292    0.0000 N   0  0  0  0  0  0  0  0  0  0  0  0
    1.7977    0.7974    0.0000 C   0  0  0  0  0  0  0  0  0  0  0  0
    3.1867    0.2312    0.0000 C   0  0  0  0  0  0  0  0  0  0  0  0
    3.3908   -1.2549    0.0000 O   0  0  0  0  0  0  0  0  0  0  0  0
    4.3717    1.1509    0.0000 O   0  0  0  0  0  0  0  0  0  0  0  0
  2  1  1  1
  2  3  1  0
  3  4  1  0
  4  5  1  0
  5  6  2  0
  5  7  1  0
  2  8  1  0
  8  9  1  0
  9 10  2  0
  9 11  1  0
M  END
>  <rName>  (725) 
bAla_3SEtCONH2

>  <PQ_SYMBOL>  (725) 
bAla_3SEtCONH2

>  <FULL_NAME>  (725) 
Beta-L-Homoglutamine

>  <IUPAC_CONDENSED>  (725) 
bAla(3S-EtCONH2)

>  <IUPAC>  (725) 
(3S)-3-amino-5-carbamoylpentanoic acid

>  <TYPE>  (725) 
Backbone

>  <CLASS>  (725) 
beta

>  <ANALOG>  (725) 
Gln

>  <MOL_WT>  (725) 
160.173

>  <LOGP>  (725) 
-0.9460999999999993

>  <TPSA>  (725) 
106.41000000000001

>  <POPULARITY>  (725) 
20.4

>  <PROTECTED>  (725) 
TRUE

>  <SMILES>  (725) 
N[C@@H](CCC(=O)N)CC(=O)O

>  <INCHIKEY>  (725) 
IDNSGZOFDGAHTI-BYPYZUCNSA-N

$$$$
D-Thr_Me
     RDKit          2D

  9  8  0  0  0  0  0  0  0  0999 V2000
    0.3500    1.8226    0.0000 N   0  0  0  0  0  0  0  0  0  0  0  0
   -0.1586    0.4115    0.0000 C   0  0  0  0  0  0  0  0  0  0  0  0
    0.8093   -0.7345    0.0000 C   0  0  0  0  0  0  0  0  0  0  0  0
    2.2856   -0.4694    0.0000 O   0  0  0  0  0  0  0  0  0  0  0  0
    2.7942    0.9418    0.0000 C   0  0  0  0  0  0  0  0  0  0  0  0
    0.3007   -2.1457    0.0000 C   0  0  0  0  0  0  0  0  0  0  0  0
   -1.6349    0.1463    0.0000 C   0  0  0  0  0  0  0  0  0  0  0  0
   -2.1435   -1.2648    0.0000 O   0  0  0  0  0  0  0  0  0  0  0  0
   -2.6028    1.2923    0.0000 O   0  0  0  0  0  0  0  0  0  0  0  0
  2  1  1  6
  2  3  1  0
  3  4  1  0
  4  5  1  0
  3  6  1  1
  2  7  1  0
  7  8  2  0
  7  9  1  0
M  END
>  <rName>  (726) 
D-Thr_Me

>  <PQ_SYMBOL>  (726) 
D-Thr_Me

>  <FULL_NAME>  (726) 
O-Methyl-D-Threonine

>  <IUPAC_CONDENSED>  (726) 
D-Thr(Me)

>  <IUPAC>  (726) 
(2R,3S)-2-amino-3-methoxybutanoic acid

>  <TYPE>  (726) 
Backbone

>  <CLASS>  (726) 
alpha

>  <ANALOG>  (726) 
Thr

>  <MOL_WT>  (726) 
133.147

>  <LOGP>  (726) 
-0.5668000000000002

>  <TPSA>  (726) 
72.55

>  <POPULARITY>  (726) 
6.6

>  <PROTECTED>  (726) 
TRUE

>  <SMILES>  (726) 
N[C@H]([C@@H](OC)C)C(=O)O

>  <INCHIKEY>  (726) 
FYCWLJLGIAUCCL-IUYQGCFVSA-N

$$$$
aIle
     RDKit          2D

  9  8  0  0  0  0  0  0  0  0999 V2000
    0.0000    2.3333    0.0000 N   0  0  0  0  0  0  0  0  0  0  0  0
    0.0000    0.8333    0.0000 C   0  0  0  0  0  0  0  0  0  0  0  0
   -1.2990    0.0833    0.0000 C   0  0  0  0  0  0  0  0  0  0  0  0
   -2.5981    0.8333    0.0000 C   0  0  0  0  0  0  0  0  0  0  0  0
   -1.2990   -1.4167    0.0000 C   0  0  0  0  0  0  0  0  0  0  0  0
   -0.0000   -2.1667    0.0000 C   0  0  0  0  0  0  0  0  0  0  0  0
    1.2990    0.0833    0.0000 C   0  0  0  0  0  0  0  0  0  0  0  0
    1.2990   -1.4167    0.0000 O   0  0  0  0  0  0  0  0  0  0  0  0
    2.5981    0.8333    0.0000 O   0  0  0  0  0  0  0  0  0  0  0  0
  2  1  1  6
  2  3  1  0
  3  4  1  1
  3  5  1  0
  5  6  1  0
  2  7  1  0
  7  8  2  0
  7  9  1  0
M  END
>  <rName>  (727) 
aIle

>  <PQ_SYMBOL>  (727) 
aIle

>  <FULL_NAME>  (727) 
Allo-L-Isoleucine, (2S,3R)-Isoleucine

>  <IUPAC_CONDENSED>  (727) 
aIle

>  <IUPAC>  (727) 
(2S,3R)-2-amino-3-methylpentanoic acid

>  <TYPE>  (727) 
Backbone

>  <CLASS>  (727) 
alpha

>  <ANALOG>  (727) 
Ile

>  <MOL_WT>  (727) 
131.175

>  <LOGP>  (727) 
0.44439999999999985

>  <TPSA>  (727) 
63.32000000000001

>  <POPULARITY>  (727) 
43.7

>  <PROTECTED>  (727) 
TRUE

>  <SMILES>  (727) 
N[C@@H]([C@H](C)CC)C(=O)O

>  <INCHIKEY>  (727) 
AGPKZVBTJJNPAG-UHNVWZDZSA-N

$$$$
Pro_4SF
     RDKit          2D

  9  9  0  0  0  0  0  0  0  0999 V2000
   -0.1792   -1.4541    0.0000 N   0  0  0  0  0  0  0  0  0  0  0  0
    0.4598   -0.0969    0.0000 C   0  0  0  0  0  0  0  0  0  0  0  0
   -0.6334    0.9301    0.0000 C   0  0  0  0  0  0  0  0  0  0  0  0
   -1.9481    0.2077    0.0000 C   0  0  0  0  0  0  0  0  0  0  0  0
   -3.3052    0.8467    0.0000 F   0  0  0  0  0  0  0  0  0  0  0  0
   -1.6673   -1.2657    0.0000 C   0  0  0  0  0  0  0  0  0  0  0  0
    1.9333    0.1838    0.0000 C   0  0  0  0  0  0  0  0  0  0  0  0
    2.4269    1.6003    0.0000 O   0  0  0  0  0  0  0  0  0  0  0  0
    2.9132   -0.9519    0.0000 O   0  0  0  0  0  0  0  0  0  0  0  0
  1  2  1  0
  2  3  1  0
  3  4  1  0
  4  5  1  1
  4  6  1  0
  2  7  1  1
  7  8  2  0
  7  9  1  0
  6  1  1  0
M  END
>  <rName>  (728) 
Pro_4SF

>  <PQ_SYMBOL>  (728) 
Pro_4SF

>  <FULL_NAME>  (728) 
cis-4-Fluoro-L-Proline

>  <IUPAC_CONDENSED>  (728) 
Pro(4S-F)

>  <IUPAC>  (728) 
(2S,4S)-4-fluoropyrrolidine-2-carboxylic acid

>  <TYPE>  (728) 
Backbone

>  <CLASS>  (728) 
alpha

>  <ANALOG>  (728) 
Pro

>  <MOL_WT>  (728) 
133.122

>  <LOGP>  (728) 
-0.22900000000000015

>  <TPSA>  (728) 
49.33

>  <POPULARITY>  (728) 
16.8

>  <PROTECTED>  (728) 
TRUE

>  <SMILES>  (728) 
N1[C@@H](C[C@H](F)C1)C(=O)O

>  <INCHIKEY>  (728) 
ZIWHMENIDGOELV-IMJSIDKUSA-N

$$$$
Pro_4RF
     RDKit          2D

  9  9  0  0  0  0  0  0  0  0999 V2000
   -0.1792   -1.4541    0.0000 N   0  0  0  0  0  0  0  0  0  0  0  0
    0.4598   -0.0969    0.0000 C   0  0  0  0  0  0  0  0  0  0  0  0
   -0.6334    0.9301    0.0000 C   0  0  0  0  0  0  0  0  0  0  0  0
   -1.9481    0.2077    0.0000 C   0  0  0  0  0  0  0  0  0  0  0  0
   -3.3052    0.8467    0.0000 F   0  0  0  0  0  0  0  0  0  0  0  0
   -1.6673   -1.2657    0.0000 C   0  0  0  0  0  0  0  0  0  0  0  0
    1.9333    0.1838    0.0000 C   0  0  0  0  0  0  0  0  0  0  0  0
    2.4269    1.6003    0.0000 O   0  0  0  0  0  0  0  0  0  0  0  0
    2.9132   -0.9519    0.0000 O   0  0  0  0  0  0  0  0  0  0  0  0
  1  2  1  0
  2  3  1  0
  3  4  1  0
  4  5  1  6
  4  6  1  0
  2  7  1  1
  7  8  2  0
  7  9  1  0
  6  1  1  0
M  END
>  <rName>  (729) 
Pro_4RF

>  <PQ_SYMBOL>  (729) 
Pro_4RF

>  <FULL_NAME>  (729) 
trans-4-Fluoro-L-Proline

>  <IUPAC_CONDENSED>  (729) 
Pro(4R-F)

>  <IUPAC>  (729) 
(2S,4R)-4-fluoropyrrolidine-2-carboxylic acid

>  <TYPE>  (729) 
Backbone

>  <CLASS>  (729) 
alpha

>  <ANALOG>  (729) 
Pro

>  <MOL_WT>  (729) 
133.122

>  <LOGP>  (729) 
-0.22900000000000015

>  <TPSA>  (729) 
49.33

>  <POPULARITY>  (729) 
23.5

>  <PROTECTED>  (729) 
TRUE

>  <SMILES>  (729) 
N1[C@@H](C[C@@H](F)C1)C(=O)O

>  <INCHIKEY>  (729) 
ZIWHMENIDGOELV-DMTCNVIQSA-N

$$$$
D-Pro_4RF
     RDKit          2D

  9  9  0  0  0  0  0  0  0  0999 V2000
   -0.1792   -1.4541    0.0000 N   0  0  0  0  0  0  0  0  0  0  0  0
    0.4598   -0.0969    0.0000 C   0  0  0  0  0  0  0  0  0  0  0  0
   -0.6334    0.9301    0.0000 C   0  0  0  0  0  0  0  0  0  0  0  0
   -1.9481    0.2077    0.0000 C   0  0  0  0  0  0  0  0  0  0  0  0
   -3.3052    0.8467    0.0000 F   0  0  0  0  0  0  0  0  0  0  0  0
   -1.6673   -1.2657    0.0000 C   0  0  0  0  0  0  0  0  0  0  0  0
    1.9333    0.1838    0.0000 C   0  0  0  0  0  0  0  0  0  0  0  0
    2.4269    1.6003    0.0000 O   0  0  0  0  0  0  0  0  0  0  0  0
    2.9132   -0.9519    0.0000 O   0  0  0  0  0  0  0  0  0  0  0  0
  1  2  1  0
  2  3  1  0
  3  4  1  0
  4  5  1  6
  4  6  1  0
  2  7  1  6
  7  8  2  0
  7  9  1  0
  6  1  1  0
M  END
>  <rName>  (730) 
D-Pro_4RF

>  <PQ_SYMBOL>  (730) 
D-Pro_4RF

>  <FULL_NAME>  (730) 
cis-4-Fluoro-D-Proline

>  <IUPAC_CONDENSED>  (730) 
D-Pro(4R-F)

>  <IUPAC>  (730) 
(2R,4R)-4-fluoropyrrolidine-2-carboxylic acid

>  <TYPE>  (730) 
Backbone

>  <CLASS>  (730) 
alpha

>  <ANALOG>  (730) 
Pro

>  <MOL_WT>  (730) 
133.122

>  <LOGP>  (730) 
-0.22900000000000015

>  <TPSA>  (730) 
49.33

>  <POPULARITY>  (730) 
6.9

>  <PROTECTED>  (730) 
TRUE

>  <SMILES>  (730) 
N1[C@H](C[C@@H](F)C1)C(=O)O

>  <INCHIKEY>  (730) 
ZIWHMENIDGOELV-QWWZWVQMSA-N

$$$$
Pip
     RDKit          2D

  9  9  0  0  0  0  0  0  0  0999 V2000
    0.4167   -1.2990    0.0000 N   0  0  0  0  0  0  0  0  0  0  0  0
   -0.3333    0.0000    0.0000 C   0  0  0  0  0  0  0  0  0  0  0  0
    0.4167    1.2990    0.0000 C   0  0  0  0  0  0  0  0  0  0  0  0
    1.9167    1.2990    0.0000 C   0  0  0  0  0  0  0  0  0  0  0  0
    2.6667    0.0000    0.0000 C   0  0  0  0  0  0  0  0  0  0  0  0
    1.9167   -1.2990    0.0000 C   0  0  0  0  0  0  0  0  0  0  0  0
   -1.8333   -0.0000    0.0000 C   0  0  0  0  0  0  0  0  0  0  0  0
   -2.5833   -1.2990    0.0000 O   0  0  0  0  0  0  0  0  0  0  0  0
   -2.5833    1.2990    0.0000 O   0  0  0  0  0  0  0  0  0  0  0  0
  1  2  1  0
  2  3  1  0
  3  4  1  0
  4  5  1  0
  5  6  1  0
  2  7  1  6
  7  8  2  0
  7  9  1  0
  6  1  1  0
M  END
>  <rName>  (731) 
Pip

>  <PQ_SYMBOL>  (731) 
Pip

>  <FULL_NAME>  (731) 
L-Pipecolic acid, L-Homoproline

>  <IUPAC_CONDENSED>  (731) 
Pip

>  <IUPAC>  (731) 
(2S)-piperidine-2-carboxylic acid

>  <TYPE>  (731) 
Backbone

>  <CLASS>  (731) 
alpha

>  <ANALOG>  (731) 
Pro

>  <MOL_WT>  (731) 
129.15900000000002

>  <LOGP>  (731) 
0.2131

>  <TPSA>  (731) 
49.33

>  <POPULARITY>  (731) 
45.2

>  <PROTECTED>  (731) 
TRUE

>  <SMILES>  (731) 
N1[C@@H](CCCC1)C(=O)O

>  <INCHIKEY>  (731) 
HXEACLLIILLPRG-YFKPBYRVSA-N

$$$$
NMe-Abu
     RDKit          2D

  8  7  0  0  0  0  0  0  0  0999 V2000
   -1.2990    1.3125    0.0000 N   0  0  0  0  0  0  0  0  0  0  0  0
   -2.5981    0.5625    0.0000 C   0  0  0  0  0  0  0  0  0  0  0  0
    0.0000    0.5625    0.0000 C   0  0  0  0  0  0  0  0  0  0  0  0
    1.2990    1.3125    0.0000 C   0  0  0  0  0  0  0  0  0  0  0  0
    2.5981    0.5625    0.0000 C   0  0  0  0  0  0  0  0  0  0  0  0
    0.0000   -0.9375    0.0000 C   0  0  0  0  0  0  0  0  0  0  0  0
   -1.2990   -1.6875    0.0000 O   0  0  0  0  0  0  0  0  0  0  0  0
    1.2990   -1.6875    0.0000 O   0  0  0  0  0  0  0  0  0  0  0  0
  1  2  1  0
  1  3  1  0
  3  4  1  1
  4  5  1  0
  3  6  1  0
  6  7  2  0
  6  8  1  0
M  END
>  <rName>  (732) 
NMe-Abu

>  <PQ_SYMBOL>  (732) 
NMe-Abu

>  <FULL_NAME>  (732) 
(2S)-2-(Methylamino)butanoic acid

>  <IUPAC_CONDENSED>  (732) 
Me-Abu

>  <IUPAC>  (732) 
(2S)-2-(methylamino)butanoic acid

>  <TYPE>  (732) 
Backbone

>  <CLASS>  (732) 
alpha

>  <ANALOG>  (732) 
Ala

>  <MOL_WT>  (732) 
117.14799999999998

>  <LOGP>  (732) 
0.06899999999999967

>  <TPSA>  (732) 
49.33

>  <POPULARITY>  (732) 
22.4

>  <PROTECTED>  (732) 
TRUE

>  <SMILES>  (732) 
N(C)[C@@H](CC)C(=O)O

>  <INCHIKEY>  (732) 
CQJAWZCYNRBZDL-BYPYZUCNSA-N

$$$$
Ser_Me
     RDKit          2D

  8  7  0  0  0  0  0  0  0  0999 V2000
   -0.2517   -1.8862    0.0000 N   0  0  0  0  0  0  0  0  0  0  0  0
   -0.3100   -0.3873    0.0000 C   0  0  0  0  0  0  0  0  0  0  0  0
    0.9590    0.4126    0.0000 C   0  0  0  0  0  0  0  0  0  0  0  0
    2.2862   -0.2864    0.0000 O   0  0  0  0  0  0  0  0  0  0  0  0
    3.5551    0.5134    0.0000 C   0  0  0  0  0  0  0  0  0  0  0  0
   -1.6371    0.3117    0.0000 C   0  0  0  0  0  0  0  0  0  0  0  0
   -1.6954    1.8105    0.0000 O   0  0  0  0  0  0  0  0  0  0  0  0
   -2.9061   -0.4882    0.0000 O   0  0  0  0  0  0  0  0  0  0  0  0
  2  1  1  6
  2  3  1  0
  3  4  1  0
  4  5  1  0
  2  6  1  0
  6  7  2  0
  6  8  1  0
M  END
>  <rName>  (733) 
Ser_Me

>  <PQ_SYMBOL>  (733) 
Ser_Me

>  <FULL_NAME>  (733) 
O-Methyl-L-Serine

>  <IUPAC_CONDENSED>  (733) 
Ser(Me)

>  <IUPAC>  (733) 
(2S)-2-amino-3-methoxypropanoic acid

>  <TYPE>  (733) 
Backbone

>  <CLASS>  (733) 
alpha

>  <ANALOG>  (733) 
Ser

>  <MOL_WT>  (733) 
119.11999999999998

>  <LOGP>  (733) 
-0.9552999999999998

>  <TPSA>  (733) 
72.55

>  <POPULARITY>  (733) 
22.5

>  <PROTECTED>  (733) 
TRUE

>  <SMILES>  (733) 
N[C@@H](COC)C(=O)O

>  <INCHIKEY>  (733) 
KNTFCRCCPLEUQZ-VKHMYHEASA-N

$$$$
2-aminoindan-2-CO2H
     RDKit          2D

 13 14  0  0  0  0  0  0  0  0999 V2000
   -2.2976    1.5588    0.0000 N   0  0  0  0  0  0  0  0  0  0  0  0
   -1.3281    0.4142    0.0000 C   0  0  0  0  0  0  0  0  0  0  0  0
   -0.6179   -0.9070    0.0000 C   0  0  0  0  0  0  0  0  0  0  0  0
    0.8581   -0.6397    0.0000 C   0  0  0  0  0  0  0  0  0  0  0  0
    2.0444   -1.5578    0.0000 C   0  0  0  0  0  0  0  0  0  0  0  0
    3.4326   -0.9895    0.0000 C   0  0  0  0  0  0  0  0  0  0  0  0
    3.6345    0.4969    0.0000 C   0  0  0  0  0  0  0  0  0  0  0  0
    2.4482    1.4149    0.0000 C   0  0  0  0  0  0  0  0  0  0  0  0
    1.0601    0.8466    0.0000 C   0  0  0  0  0  0  0  0  0  0  0  0
   -0.2911    1.4980    0.0000 C   0  0  0  0  0  0  0  0  0  0  0  0
   -2.5678   -0.4303    0.0000 C   0  0  0  0  0  0  0  0  0  0  0  0
   -2.4563   -1.9262    0.0000 O   0  0  0  0  0  0  0  0  0  0  0  0
   -3.9190    0.2210    0.0000 O   0  0  0  0  0  0  0  0  0  0  0  0
  1  2  1  0
  2  3  1  0
  3  4  1  0
  4  5  2  0
  5  6  1  0
  6  7  2  0
  7  8  1  0
  8  9  2  0
  9 10  1  0
  2 11  1  0
 11 12  2  0
 11 13  1  0
  9  4  1  0
 10  2  1  0
M  END
>  <rName>  (734) 
2-aminoindan-2-CO2H

>  <PQ_SYMBOL>  (734) 
2-aminoindan-2-CO2H

>  <FULL_NAME>  (734) 
2-amino-2-indancarboxylic acid

>  <IUPAC_CONDENSED>  (734) 
2-aminoindan-2-CO2H

>  <IUPAC>  (734) 
2-aminoindane-2-carboxylic acid

>  <TYPE>  (734) 
Backbone

>  <CLASS>  (734) 
alpha

>  <ANALOG>  (734) 
Phe

>  <MOL_WT>  (734) 
177.20299999999995

>  <LOGP>  (734) 
0.5672999999999999

>  <TPSA>  (734) 
63.32000000000001

>  <POPULARITY>  (734) 
18.9

>  <PROTECTED>  (734) 
TRUE

>  <SMILES>  (734) 
NC2(Cc1(ccccc1C2))C(=O)O

>  <INCHIKEY>  (734) 
UHQFXIWMAQOCAN-UHFFFAOYSA-N

$$$$
bAla_2SiBu
     RDKit          2D

 10  9  0  0  0  0  0  0  0  0999 V2000
    3.1802    0.8418    0.0000 N   0  0  0  0  0  0  0  0  0  0  0  0
    1.8138    1.4604    0.0000 C   0  0  0  0  0  0  0  0  0  0  0  0
    0.5948    0.5863    0.0000 C   0  0  0  0  0  0  0  0  0  0  0  0
   -0.7717    1.2050    0.0000 C   0  0  0  0  0  0  0  0  0  0  0  0
   -1.9907    0.3309    0.0000 C   0  0  0  0  0  0  0  0  0  0  0  0
   -3.3572    0.9495    0.0000 C   0  0  0  0  0  0  0  0  0  0  0  0
   -1.8433   -1.1619    0.0000 C   0  0  0  0  0  0  0  0  0  0  0  0
    0.7422   -0.9064    0.0000 C   0  0  0  0  0  0  0  0  0  0  0  0
   -0.4768   -1.7805    0.0000 O   0  0  0  0  0  0  0  0  0  0  0  0
    2.1087   -1.5251    0.0000 O   0  0  0  0  0  0  0  0  0  0  0  0
  1  2  1  0
  3  2  1  1
  3  4  1  0
  4  5  1  0
  5  6  1  0
  5  7  1  0
  3  8  1  0
  8  9  2  0
  8 10  1  0
M  END
>  <rName>  (735) 
bAla_2SiBu

>  <PQ_SYMBOL>  (735) 
bAla_2SiBu

>  <FULL_NAME>  (735) 
(S)-2-(aminomethyl)-4-methylpentanoic acid, L-Beta2-Homoleucine

>  <IUPAC_CONDENSED>  (735) 
bAla(2S-iBu)

>  <IUPAC>  (735) 
(2S)-2-(aminomethyl)-4-methylpentanoic acid

>  <TYPE>  (735) 
Backbone

>  <CLASS>  (735) 
beta

>  <ANALOG>  (735) 
Leu

>  <MOL_WT>  (735) 
145.202

>  <LOGP>  (735) 
0.6920000000000002

>  <TPSA>  (735) 
63.32000000000001

>  <POPULARITY>  (735) 
13.9

>  <PROTECTED>  (735) 
TRUE

>  <SMILES>  (735) 
NC[C@H](CC(C)C)C(=O)O

>  <INCHIKEY>  (735) 
IAXQYBCPMFDMOJ-LURJTMIESA-N

$$$$
Ala_cBu
     RDKit          2D

 10 10  0  0  0  0  0  0  0  0999 V2000
   -0.6366    1.7081    0.0000 N   0  0  0  0  0  0  0  0  0  0  0  0
   -0.9860    0.2494    0.0000 C   0  0  0  0  0  0  0  0  0  0  0  0
    0.1026   -0.7826    0.0000 C   0  0  0  0  0  0  0  0  0  0  0  0
    1.5406   -0.3558    0.0000 C   0  0  0  0  0  0  0  0  0  0  0  0
    2.2557    0.9628    0.0000 C   0  0  0  0  0  0  0  0  0  0  0  0
    3.5743    0.2478    0.0000 C   0  0  0  0  0  0  0  0  0  0  0  0
    2.8592   -1.0708    0.0000 C   0  0  0  0  0  0  0  0  0  0  0  0
   -2.4240   -0.1774    0.0000 C   0  0  0  0  0  0  0  0  0  0  0  0
   -2.7734   -1.6361    0.0000 O   0  0  0  0  0  0  0  0  0  0  0  0
   -3.5126    0.8546    0.0000 O   0  0  0  0  0  0  0  0  0  0  0  0
  2  1  1  1
  2  3  1  0
  3  4  1  0
  4  5  1  0
  5  6  1  0
  6  7  1  0
  2  8  1  0
  8  9  2  0
  8 10  1  0
  7  4  1  0
M  END
>  <rName>  (736) 
Ala_cBu

>  <PQ_SYMBOL>  (736) 
Ala_cBu

>  <FULL_NAME>  (736) 
Beta-cyclobutyl-L-alanine

>  <IUPAC_CONDENSED>  (736) 
Ala(cBu)

>  <IUPAC>  (736) 
(2S)-2-amino-3-cyclobutylpropanoic acid

>  <TYPE>  (736) 
Backbone

>  <CLASS>  (736) 
alpha

>  <ANALOG>  (736) 
Ala

>  <MOL_WT>  (736) 
143.186

>  <LOGP>  (736) 
0.5884999999999998

>  <TPSA>  (736) 
63.32000000000001

>  <POPULARITY>  (736) 
14

>  <PROTECTED>  (736) 
TRUE

>  <SMILES>  (736) 
N[C@@H](CC1(CCC1))C(=O)O

>  <INCHIKEY>  (736) 
SRGOJUDAJKUDAZ-LURJTMIESA-N

$$$$
NBuNH2-G
     RDKit          2D

 10  9  0  0  0  0  0  0  0  0999 V2000
    0.9213   -0.1695    0.0000 N   0  0  0  0  0  0  0  0  0  0  0  0
   -0.4208    0.5004    0.0000 C   0  0  0  0  0  0  0  0  0  0  0  0
   -1.6720   -0.3269    0.0000 C   0  0  0  0  0  0  0  0  0  0  0  0
   -3.0141    0.3430    0.0000 C   0  0  0  0  0  0  0  0  0  0  0  0
   -4.2653   -0.4843    0.0000 C   0  0  0  0  0  0  0  0  0  0  0  0
   -5.6074    0.1857    0.0000 N   0  0  0  0  0  0  0  0  0  0  0  0
    2.1725    0.6578    0.0000 C   0  0  0  0  0  0  0  0  0  0  0  0
    3.5146   -0.0121    0.0000 C   0  0  0  0  0  0  0  0  0  0  0  0
    3.6055   -1.5094    0.0000 O   0  0  0  0  0  0  0  0  0  0  0  0
    4.7658    0.8152    0.0000 O   0  0  0  0  0  0  0  0  0  0  0  0
  1  2  1  0
  2  3  1  0
  3  4  1  0
  4  5  1  0
  5  6  1  0
  1  7  1  0
  7  8  1  0
  8  9  2  0
  8 10  1  0
M  END
>  <rName>  (737) 
NBuNH2-G

>  <PQ_SYMBOL>  (737) 
NBuNH2-G

>  <FULL_NAME>  (737) 
N-(4-aminobutyl)-Glycine

>  <IUPAC_CONDENSED>  (737) 
NH2Bu-Gly

>  <IUPAC>  (737) 
2-((4-aminobutyl)amino)acetic acid

>  <TYPE>  (737) 
Backbone

>  <CLASS>  (737) 
alpha

>  <ANALOG>  (737) 
Gly

>  <MOL_WT>  (737) 
146.19000000000003

>  <LOGP>  (737) 
-0.6004999999999998

>  <TPSA>  (737) 
75.35

>  <POPULARITY>  (737) 
34.7

>  <PROTECTED>  (737) 
TRUE

>  <SMILES>  (737) 
N(CCCCN)CC(=O)O

>  <INCHIKEY>  (737) 
OGAULEBSQQMUKP-UHFFFAOYSA-N

$$$$
NPrNH2-G
     RDKit          2D

  9  8  0  0  0  0  0  0  0  0999 V2000
    0.2960   -0.1534    0.0000 N   0  0  0  0  0  0  0  0  0  0  0  0
   -1.0358    0.5368    0.0000 C   0  0  0  0  0  0  0  0  0  0  0  0
   -2.2994   -0.2714    0.0000 C   0  0  0  0  0  0  0  0  0  0  0  0
   -3.6312    0.4188    0.0000 C   0  0  0  0  0  0  0  0  0  0  0  0
   -4.8948   -0.3895    0.0000 N   0  0  0  0  0  0  0  0  0  0  0  0
    1.5596    0.6549    0.0000 C   0  0  0  0  0  0  0  0  0  0  0  0
    2.8913   -0.0353    0.0000 C   0  0  0  0  0  0  0  0  0  0  0  0
    2.9595   -1.5338    0.0000 O   0  0  0  0  0  0  0  0  0  0  0  0
    4.1550    0.7729    0.0000 O   0  0  0  0  0  0  0  0  0  0  0  0
  1  2  1  0
  2  3  1  0
  3  4  1  0
  4  5  1  0
  1  6  1  0
  6  7  1  0
  7  8  2  0
  7  9  1  0
M  END
>  <rName>  (738) 
NPrNH2-G

>  <PQ_SYMBOL>  (738) 
NPrNH2-G

>  <FULL_NAME>  (738) 
N-(3-aminopropyl)-Glycine

>  <IUPAC_CONDENSED>  (738) 
H2NPr-Gly

>  <IUPAC>  (738) 
2-((3-aminopropyl)amino)acetic acid

>  <TYPE>  (738) 
Backbone

>  <CLASS>  (738) 
alpha

>  <ANALOG>  (738) 
Gly

>  <MOL_WT>  (738) 
132.163

>  <LOGP>  (738) 
-0.9905999999999995

>  <TPSA>  (738) 
75.35

>  <POPULARITY>  (738) 
21.8

>  <PROTECTED>  (738) 
TRUE

>  <SMILES>  (738) 
N(CCCN)CC(=O)O

>  <INCHIKEY>  (738) 
DHGYLUFLENKZHH-UHFFFAOYSA-N

$$$$
NEtNH2-G
     RDKit          2D

  8  7  0  0  0  0  0  0  0  0999 V2000
   -0.3069   -0.2155    0.0000 N   0  0  0  0  0  0  0  0  0  0  0  0
   -1.6672    0.4165    0.0000 C   0  0  0  0  0  0  0  0  0  0  0  0
   -2.8948   -0.4455    0.0000 C   0  0  0  0  0  0  0  0  0  0  0  0
   -4.2551    0.1865    0.0000 N   0  0  0  0  0  0  0  0  0  0  0  0
    0.9207    0.6465    0.0000 C   0  0  0  0  0  0  0  0  0  0  0  0
    2.2810    0.0145    0.0000 C   0  0  0  0  0  0  0  0  0  0  0  0
    2.4138   -1.4796    0.0000 O   0  0  0  0  0  0  0  0  0  0  0  0
    3.5085    0.8766    0.0000 O   0  0  0  0  0  0  0  0  0  0  0  0
  1  2  1  0
  2  3  1  0
  3  4  1  0
  1  5  1  0
  5  6  1  0
  6  7  2  0
  6  8  1  0
M  END
>  <rName>  (739) 
NEtNH2-G

>  <PQ_SYMBOL>  (739) 
NEtNH2-G

>  <FULL_NAME>  (739) 
N-(2-aminoethyl)-Glycine

>  <IUPAC_CONDENSED>  (739) 
H2NEt-Gly

>  <IUPAC>  (739) 
2-((2-aminoethyl)amino)acetic acid

>  <TYPE>  (739) 
Backbone

>  <CLASS>  (739) 
alpha

>  <ANALOG>  (739) 
Gly

>  <MOL_WT>  (739) 
118.13599999999998

>  <LOGP>  (739) 
-1.3806999999999996

>  <TPSA>  (739) 
75.35

>  <POPULARITY>  (739) 
26.7

>  <PROTECTED>  (739) 
TRUE

>  <SMILES>  (739) 
N(CCN)CC(=O)O

>  <INCHIKEY>  (739) 
PIINGYXNCHTJTF-UHFFFAOYSA-N

$$$$
Ac3c
     RDKit          2D

  7  7  0  0  0  0  0  0  0  0999 V2000
   -0.4697   -1.7006    0.0000 N   0  0  0  0  0  0  0  0  0  0  0  0
   -0.5498   -0.2027    0.0000 C   0  0  0  0  0  0  0  0  0  0  0  0
   -1.1373    1.1774    0.0000 C   0  0  0  0  0  0  0  0  0  0  0  0
   -2.0388   -0.0215    0.0000 C   0  0  0  0  0  0  0  0  0  0  0  0
    0.9114    0.1362    0.0000 C   0  0  0  0  0  0  0  0  0  0  0  0
    1.3485    1.5711    0.0000 O   0  0  0  0  0  0  0  0  0  0  0  0
    1.9356   -0.9598    0.0000 O   0  0  0  0  0  0  0  0  0  0  0  0
  1  2  1  0
  2  3  1  0
  3  4  1  0
  2  5  1  0
  5  6  2  0
  5  7  1  0
  4  2  1  0
M  END
>  <rName>  (740) 
Ac3c

>  <PQ_SYMBOL>  (740) 
Ac3c

>  <FULL_NAME>  (740) 
1-aminocyclopropane-1-carboxylic acid

>  <IUPAC_CONDENSED>  (740) 
Ac3c

>  <IUPAC>  (740) 
1-aminocyclopropanecarboxylic acid

>  <TYPE>  (740) 
Backbone

>  <CLASS>  (740) 
alpha

>  <ANALOG>  (740) 
X

>  <MOL_WT>  (740) 
101.10499999999999

>  <LOGP>  (740) 
-0.43770000000000003

>  <TPSA>  (740) 
63.32000000000001

>  <POPULARITY>  (740) 
34.8

>  <PROTECTED>  (740) 
TRUE

>  <SMILES>  (740) 
NC1(CC1)C(=O)O

>  <INCHIKEY>  (740) 
PAJPWUMXBYXFCZ-UHFFFAOYSA-N

$$$$
NEt-G
     RDKit          2D

  7  6  0  0  0  0  0  0  0  0999 V2000
    0.9202    0.1603    0.0000 N   0  0  0  0  0  0  0  0  0  0  0  0
    2.2602   -0.5139    0.0000 C   0  0  0  0  0  0  0  0  0  0  0  0
    3.5140    0.3095    0.0000 C   0  0  0  0  0  0  0  0  0  0  0  0
   -0.3336   -0.6631    0.0000 C   0  0  0  0  0  0  0  0  0  0  0  0
   -1.6736    0.0110    0.0000 C   0  0  0  0  0  0  0  0  0  0  0  0
   -1.7598    1.5085    0.0000 O   0  0  0  0  0  0  0  0  0  0  0  0
   -2.9274   -0.8124    0.0000 O   0  0  0  0  0  0  0  0  0  0  0  0
  1  2  1  0
  2  3  1  0
  1  4  1  0
  4  5  1  0
  5  6  2  0
  5  7  1  0
M  END
>  <rName>  (741) 
NEt-G

>  <PQ_SYMBOL>  (741) 
NEt-G

>  <FULL_NAME>  (741) 
N-ethylglycine

>  <IUPAC_CONDENSED>  (741) 
Et-Gly

>  <IUPAC>  (741) 
2-(ethylamino)acetic acid

>  <TYPE>  (741) 
Backbone

>  <CLASS>  (741) 
alpha

>  <ANALOG>  (741) 
Gly

>  <MOL_WT>  (741) 
103.12099999999998

>  <LOGP>  (741) 
-0.31949999999999995

>  <TPSA>  (741) 
49.33

>  <POPULARITY>  (741) 
23.3

>  <PROTECTED>  (741) 
TRUE

>  <SMILES>  (741) 
N(CC)CC(=O)O

>  <INCHIKEY>  (741) 
YPIGGYHFMKJNKV-UHFFFAOYSA-N

$$$$
Ala_Cl
     RDKit          2D

  7  6  0  0  0  0  0  0  0  0999 V2000
    0.5797   -1.7367    0.0000 N   0  0  0  0  0  0  0  0  0  0  0  0
    0.2514   -0.2730    0.0000 C   0  0  0  0  0  0  0  0  0  0  0  0
    1.3548    0.7431    0.0000 C   0  0  0  0  0  0  0  0  0  0  0  0
    2.7865    0.2956    0.0000 Cl  0  0  0  0  0  0  0  0  0  0  0  0
   -1.1803    0.1745    0.0000 C   0  0  0  0  0  0  0  0  0  0  0  0
   -1.5086    1.6381    0.0000 O   0  0  0  0  0  0  0  0  0  0  0  0
   -2.2837   -0.8417    0.0000 O   0  0  0  0  0  0  0  0  0  0  0  0
  2  1  1  6
  2  3  1  0
  3  4  1  0
  2  5  1  0
  5  6  2  0
  5  7  1  0
M  END
>  <rName>  (742) 
Ala_Cl

>  <PQ_SYMBOL>  (742) 
Ala_Cl

>  <FULL_NAME>  (742) 
Beta-chloro-L-alanine

>  <IUPAC_CONDENSED>  (742) 
Ala(Cl)

>  <IUPAC>  (742) 
(2R)-2-amino-3-chloropropanoic acid

>  <TYPE>  (742) 
Backbone

>  <CLASS>  (742) 
alpha

>  <ANALOG>  (742) 
X

>  <MOL_WT>  (742) 
123.53899999999997

>  <LOGP>  (742) 
-0.36290000000000006

>  <TPSA>  (742) 
63.32000000000001

>  <POPULARITY>  (742) 
11.9

>  <PROTECTED>  (742) 
TRUE

>  <SMILES>  (742) 
N[C@@H](CCl)C(=O)O

>  <INCHIKEY>  (742) 
ASBJGPTTYPEMLP-REOHCLBHSA-N

$$$$
morpholine-3-CO2H_S
     RDKit          2D

  9  9  0  0  0  0  0  0  0  0999 V2000
    0.4167   -1.2990    0.0000 N   0  0  0  0  0  0  0  0  0  0  0  0
   -0.3333    0.0000    0.0000 C   0  0  0  0  0  0  0  0  0  0  0  0
    0.4167    1.2990    0.0000 C   0  0  0  0  0  0  0  0  0  0  0  0
    1.9167    1.2990    0.0000 O   0  0  0  0  0  0  0  0  0  0  0  0
    2.6667    0.0000    0.0000 C   0  0  0  0  0  0  0  0  0  0  0  0
    1.9167   -1.2990    0.0000 C   0  0  0  0  0  0  0  0  0  0  0  0
   -1.8333   -0.0000    0.0000 C   0  0  0  0  0  0  0  0  0  0  0  0
   -2.5833   -1.2990    0.0000 O   0  0  0  0  0  0  0  0  0  0  0  0
   -2.5833    1.2990    0.0000 O   0  0  0  0  0  0  0  0  0  0  0  0
  1  2  1  0
  2  3  1  0
  3  4  1  0
  4  5  1  0
  5  6  1  0
  2  7  1  6
  7  8  2  0
  7  9  1  0
  6  1  1  0
M  END
>  <rName>  (743) 
morpholine-3-CO2H_S

>  <PQ_SYMBOL>  (743) 
morpholine-3-CO2H_S

>  <FULL_NAME>  (743) 
(S)-3-carboxymorpholine

>  <IUPAC_CONDENSED>  (743) 
morpholine-3-CO2H(S)

>  <IUPAC>  (743) 
(3S)-morpholine-3-carboxylic acid

>  <TYPE>  (743) 
Backbone

>  <CLASS>  (743) 
alpha

>  <ANALOG>  (743) 
Pro

>  <MOL_WT>  (743) 
131.131

>  <LOGP>  (743) 
-0.9406000000000001

>  <TPSA>  (743) 
58.56

>  <POPULARITY>  (743) 
11.4

>  <PROTECTED>  (743) 
TRUE

>  <SMILES>  (743) 
N1[C@@H](COCC1)C(=O)O

>  <INCHIKEY>  (743) 
JUNOWSHJELIDQP-BYPYZUCNSA-N

$$$$
Pro_44diF
     RDKit          2D

 10 10  0  0  0  0  0  0  0  0999 V2000
    0.0971   -1.5050    0.0000 N   0  0  0  0  0  0  0  0  0  0  0  0
    0.7221   -0.1414    0.0000 C   0  0  0  0  0  0  0  0  0  0  0  0
   -0.3816    0.8744    0.0000 C   0  0  0  0  0  0  0  0  0  0  0  0
   -1.6888    0.1386    0.0000 C   0  0  0  0  0  0  0  0  0  0  0  0
   -3.1203   -0.3093    0.0000 F   0  0  0  0  0  0  0  0  0  0  0  0
   -2.2839    1.5155    0.0000 F   0  0  0  0  0  0  0  0  0  0  0  0
   -1.3929   -1.3319    0.0000 C   0  0  0  0  0  0  0  0  0  0  0  0
    2.1926    0.1544    0.0000 C   0  0  0  0  0  0  0  0  0  0  0  0
    2.6717    1.5759    0.0000 O   0  0  0  0  0  0  0  0  0  0  0  0
    3.1841   -0.9712    0.0000 O   0  0  0  0  0  0  0  0  0  0  0  0
  1  2  1  0
  2  3  1  0
  3  4  1  0
  4  5  1  0
  4  6  1  0
  4  7  1  0
  2  8  1  1
  8  9  2  0
  8 10  1  0
  7  1  1  0
M  END
>  <rName>  (744) 
Pro_44diF

>  <PQ_SYMBOL>  (744) 
Pro_44diF

>  <FULL_NAME>  (744) 
4,4-difluoro-L-Proline

>  <IUPAC_CONDENSED>  (744) 
Pro(4,4-diF)

>  <IUPAC>  (744) 
(2S)-4,4-difluoropyrrolidine-2-carboxylic acid

>  <TYPE>  (744) 
Backbone

>  <CLASS>  (744) 
alpha

>  <ANALOG>  (744) 
Pro

>  <MOL_WT>  (744) 
151.11200000000002

>  <LOGP>  (744) 
0.06819999999999976

>  <TPSA>  (744) 
49.33

>  <POPULARITY>  (744) 
8.5

>  <PROTECTED>  (744) 
TRUE

>  <SMILES>  (744) 
N1[C@@H](CC(F)(F)C1)C(=O)O

>  <INCHIKEY>  (744) 
ZPBIYZHGBPBZCK-VKHMYHEASA-N

$$$$
Ala_CF3
     RDKit          2D

 10  9  0  0  0  0  0  0  0  0999 V2000
   -0.5029   -1.7542    0.0000 N   0  0  0  0  0  0  0  0  0  0  0  0
   -0.7450   -0.2738    0.0000 C   0  0  0  0  0  0  0  0  0  0  0  0
    0.4160    0.6760    0.0000 C   0  0  0  0  0  0  0  0  0  0  0  0
    1.8190    0.1455    0.0000 C   0  0  0  0  0  0  0  0  0  0  0  0
    3.2221   -0.3850    0.0000 F   0  0  0  0  0  0  0  0  0  0  0  0
    2.3495    1.5485    0.0000 F   0  0  0  0  0  0  0  0  0  0  0  0
    1.2885   -1.2576    0.0000 F   0  0  0  0  0  0  0  0  0  0  0  0
   -2.1480    0.2567    0.0000 C   0  0  0  0  0  0  0  0  0  0  0  0
   -2.3901    1.7370    0.0000 O   0  0  0  0  0  0  0  0  0  0  0  0
   -3.3090   -0.6932    0.0000 O   0  0  0  0  0  0  0  0  0  0  0  0
  2  1  1  6
  2  3  1  0
  3  4  1  0
  4  5  1  0
  4  6  1  0
  4  7  1  0
  2  8  1  0
  8  9  2  0
  8 10  1  0
M  END
>  <rName>  (745) 
Ala_CF3

>  <PQ_SYMBOL>  (745) 
Ala_CF3

>  <FULL_NAME>  (745) 
(S)-2-amino-4,4,4-trifluoro-butyric acid

>  <IUPAC_CONDENSED>  (745) 
Ala(CF3)

>  <IUPAC>  (745) 
(2S)-2-amino-4,4,4-trifluorobutanoic acid

>  <TYPE>  (745) 
Backbone

>  <CLASS>  (745) 
alpha

>  <ANALOG>  (745) 
X

>  <MOL_WT>  (745) 
157.091

>  <LOGP>  (745) 
0.3506999999999998

>  <TPSA>  (745) 
63.32000000000001

>  <POPULARITY>  (745) 
15.5

>  <PROTECTED>  (745) 
TRUE

>  <SMILES>  (745) 
N[C@@H](CC(F)(F)F)C(=O)O

>  <INCHIKEY>  (745) 
AQPCXCOPDSEKQT-REOHCLBHSA-N

$$$$
Gaba
     RDKit          2D

  7  6  0  0  0  0  0  0  0  0999 V2000
   -3.5140    0.3095    0.0000 N   0  0  0  0  0  0  0  0  0  0  0  0
   -2.2602   -0.5139    0.0000 C   0  0  0  0  0  0  0  0  0  0  0  0
   -0.9202    0.1603    0.0000 C   0  0  0  0  0  0  0  0  0  0  0  0
    0.3336   -0.6631    0.0000 C   0  0  0  0  0  0  0  0  0  0  0  0
    1.6736    0.0110    0.0000 C   0  0  0  0  0  0  0  0  0  0  0  0
    1.7598    1.5085    0.0000 O   0  0  0  0  0  0  0  0  0  0  0  0
    2.9274   -0.8124    0.0000 O   0  0  0  0  0  0  0  0  0  0  0  0
  1  2  1  0
  2  3  1  0
  3  4  1  0
  4  5  1  0
  5  6  2  0
  5  7  1  0
M  END
>  <rName>  (746) 
Gaba

>  <PQ_SYMBOL>  (746) 
Gaba

>  <FULL_NAME>  (746) 
gamma-aminobutyric-acid

>  <IUPAC_CONDENSED>  (746) 
Gaba

>  <IUPAC>  (746) 
4-aminobutanoic acid

>  <TYPE>  (746) 
Backbone

>  <CLASS>  (746) 
gamma

>  <ANALOG>  (746) 
Gly

>  <MOL_WT>  (746) 
103.12099999999998

>  <LOGP>  (746) 
-0.19009999999999977

>  <TPSA>  (746) 
63.32000000000001

>  <POPULARITY>  (746) 
19

>  <PROTECTED>  (746) 
TRUE

>  <SMILES>  (746) 
NCCCC(=O)O

>  <INCHIKEY>  (746) 
BTCSSZJGUNDROE-UHFFFAOYSA-N

$$$$
EtOH-Gaba
     RDKit          2D

 10 10  0  0  0  0  0  0  0  0999 V2000
    2.7213   -0.9820    0.0000 N   0  0  0  0  0  0  0  0  0  0  0  0
    1.3040   -1.4730    0.0000 C   0  0  0  0  0  0  0  0  0  0  0  0
    0.1701   -0.4910    0.0000 C   0  0  0  0  0  0  0  0  0  0  0  0
    0.4536    0.9820    0.0000 O   0  0  0  0  0  0  0  0  0  0  0  0
    1.8709    1.4730    0.0000 C   0  0  0  0  0  0  0  0  0  0  0  0
    3.0048    0.4910    0.0000 C   0  0  0  0  0  0  0  0  0  0  0  0
   -1.2473   -0.9820    0.0000 C   0  0  0  0  0  0  0  0  0  0  0  0
   -2.3812    0.0000    0.0000 C   0  0  0  0  0  0  0  0  0  0  0  0
   -2.0977    1.4730    0.0000 O   0  0  0  0  0  0  0  0  0  0  0  0
   -3.7985   -0.4910    0.0000 O   0  0  0  0  0  0  0  0  0  0  0  0
  1  2  1  0
  2  3  1  0
  3  4  1  0
  4  5  1  0
  5  6  1  0
  3  7  1  0
  7  8  1  0
  8  9  2  0
  8 10  1  0
  6  1  1  0
M  END
>  <rName>  (747) 
EtOH-Gaba

>  <PQ_SYMBOL>  (747) 
EtOH-Gaba

>  <FULL_NAME>  (747) 
2-Morpholineacetic acid

>  <IUPAC_CONDENSED>  (747) 
EtOH-Gaba

>  <IUPAC>  (747) 
2-(morpholin-2-yl)acetic acid

>  <TYPE>  (747) 
Backbone

>  <CLASS>  (747) 
gamma

>  <ANALOG>  (747) 
Pro

>  <MOL_WT>  (747) 
145.15800000000002

>  <LOGP>  (747) 
-0.5505000000000002

>  <TPSA>  (747) 
58.56

>  <POPULARITY>  (747) 
10.6

>  <PROTECTED>  (747) 
TRUE

>  <SMILES>  (747) 
N1CC(OCC1)CC(=O)O

>  <INCHIKEY>  (747) 
TWCXRVFSIAWFMA-UHFFFAOYSA-N

$$$$
acHexGaba
     RDKit          2D

 14 16  0  0  0  0  0  0  0  0999 V2000
   -2.9231   -0.7978    0.0000 N   0  0  0  0  0  0  0  0  0  0  0  0
   -1.7480    0.1346    0.0000 C   0  0  0  0  0  0  0  0  0  0  0  0
   -0.3531   -0.4169    0.0000 C   0  0  0  0  0  0  0  0  0  0  0  0
    0.8220    0.5154    0.0000 C   0  0  0  0  0  0  0  0  0  0  0  0
    0.6021    1.9992    0.0000 C   0  0  0  0  0  0  0  0  0  0  0  0
   -0.7928    2.5507    0.0000 C   0  0  0  0  0  0  0  0  0  0  0  0
   -1.0655   -0.7256    0.0000 C   0  0  0  0  0  0  0  0  0  0  0  0
   -0.1332   -1.9007    0.0000 C   0  0  0  0  0  0  0  0  0  0  0  0
   -1.5281   -1.3492    0.0000 C   0  0  0  0  0  0  0  0  0  0  0  0
    1.0419   -0.9684    0.0000 C   0  0  0  0  0  0  0  0  0  0  0  0
   -1.9679    1.6184    0.0000 C   0  0  0  0  0  0  0  0  0  0  0  0
    2.2169   -0.0361    0.0000 C   0  0  0  0  0  0  0  0  0  0  0  0
    2.4368   -1.5199    0.0000 O   0  0  0  0  0  0  0  0  0  0  0  0
    3.3920    0.8963    0.0000 O   0  0  0  0  0  0  0  0  0  0  0  0
  1  2  1  0
  2  3  1  0
  3  4  1  0
  4  5  1  0
  5  6  1  0
  6  7  1  0
  7  8  1  0
  8  9  1  0
  8 10  1  0
  6 11  1  0
  4 12  1  0
 12 13  2  0
 12 14  1  0
  9  2  1  0
 10  4  1  0
 11  2  1  0
M  END
>  <rName>  (748) 
acHexGaba

>  <PQ_SYMBOL>  (748) 
acHexGaba

>  <FULL_NAME>  (748) 
3-aminoadamantane-1-carboxylic acid

>  <IUPAC_CONDENSED>  (748) 
acHexGaba

>  <IUPAC>  (748) 
3-aminoadamantane-1-carboxylic acid

>  <TYPE>  (748) 
Backbone

>  <CLASS>  (748) 
gamma

>  <ANALOG>  (748) 
X

>  <MOL_WT>  (748) 
195.26199999999997

>  <LOGP>  (748) 
1.3687

>  <TPSA>  (748) 
63.32000000000001

>  <POPULARITY>  (748) 
8.3

>  <PROTECTED>  (748) 
TRUE

>  <SMILES>  (748) 
NC31CC2(CC(CC(C1)C2)C3)C(=O)O

>  <INCHIKEY>  (748) 
ZBPOKYGSYKBAAW-UHFFFAOYSA-N

$$$$
4-aminomethyl-cHex-1-CO2H
     RDKit          2D

 11 11  0  0  0  0  0  0  0  0999 V2000
   -4.1862    0.7785    0.0000 N   0  0  0  0  0  0  0  0  0  0  0  0
   -3.3137   -0.4417    0.0000 C   0  0  0  0  0  0  0  0  0  0  0  0
   -1.8208   -0.2961    0.0000 C   0  0  0  0  0  0  0  0  0  0  0  0
   -1.2003    1.0695    0.0000 C   0  0  0  0  0  0  0  0  0  0  0  0
    0.2926    1.2151    0.0000 C   0  0  0  0  0  0  0  0  0  0  0  0
    1.1651   -0.0051    0.0000 C   0  0  0  0  0  0  0  0  0  0  0  0
    0.5446   -1.3708    0.0000 C   0  0  0  0  0  0  0  0  0  0  0  0
   -0.9483   -1.5163    0.0000 C   0  0  0  0  0  0  0  0  0  0  0  0
    2.6580    0.1404    0.0000 C   0  0  0  0  0  0  0  0  0  0  0  0
    3.2784    1.5061    0.0000 O   0  0  0  0  0  0  0  0  0  0  0  0
    3.5305   -1.0797    0.0000 O   0  0  0  0  0  0  0  0  0  0  0  0
  1  2  1  0
  2  3  1  0
  3  4  1  0
  4  5  1  0
  5  6  1  0
  6  7  1  0
  7  8  1  0
  6  9  1  0
  9 10  2  0
  9 11  1  0
  8  3  1  0
M  END
>  <rName>  (749) 
4-aminomethyl-cHex-1-CO2H

>  <PQ_SYMBOL>  (749) 
4-aminomethyl-cHex-1-CO2H

>  <FULL_NAME>  (749) 
Tranexamic acid

>  <IUPAC_CONDENSED>  (749) 
4-aminomethyl-cHex-1-CO2H

>  <IUPAC>  (749) 
4-(aminomethyl)cyclohexanecarboxylic acid

>  <TYPE>  (749) 
Backbone

>  <CLASS>  (749) 
epsilon

>  <ANALOG>  (749) 
Ala

>  <MOL_WT>  (749) 
157.213

>  <LOGP>  (749) 
0.8361000000000001

>  <TPSA>  (749) 
63.32000000000001

>  <POPULARITY>  (749) 
13.9

>  <PROTECTED>  (749) 
TRUE

>  <SMILES>  (749) 
NCC1CCC(CC1)C(=O)O

>  <INCHIKEY>  (749) 
GYDJEQRTZSCIOI-UHFFFAOYSA-N

$$$$
bAla_3SCH2OH
     RDKit          2D

  8  7  0  0  0  0  0  0  0  0999 V2000
   -0.7931    1.4169    0.0000 N   0  0  0  0  0  0  0  0  0  0  0  0
   -0.8131   -0.0829    0.0000 C   0  0  0  0  0  0  0  0  0  0  0  0
   -2.1220   -0.8156    0.0000 C   0  0  0  0  0  0  0  0  0  0  0  0
   -3.4109   -0.0483    0.0000 O   0  0  0  0  0  0  0  0  0  0  0  0
    0.4759   -0.8502    0.0000 C   0  0  0  0  0  0  0  0  0  0  0  0
    1.7848   -0.1175    0.0000 C   0  0  0  0  0  0  0  0  0  0  0  0
    1.8048    1.3823    0.0000 O   0  0  0  0  0  0  0  0  0  0  0  0
    3.0737   -0.8848    0.0000 O   0  0  0  0  0  0  0  0  0  0  0  0
  2  1  1  6
  2  3  1  0
  3  4  1  0
  2  5  1  0
  5  6  1  0
  6  7  2  0
  6  8  1  0
M  END
>  <rName>  (750) 
bAla_3SCH2OH

>  <PQ_SYMBOL>  (750) 
bAla_3SCH2OH

>  <FULL_NAME>  (750) 
L-beta-Homoserine

>  <IUPAC_CONDENSED>  (750) 
bAla(3S-CH2OH)

>  <IUPAC>  (750) 
(3R)-3-amino-4-hydroxybutanoic acid

>  <TYPE>  (750) 
Backbone

>  <CLASS>  (750) 
beta

>  <ANALOG>  (750) 
Ser

>  <MOL_WT>  (750) 
119.11999999999999

>  <LOGP>  (750) 
-1.2192999999999998

>  <TPSA>  (750) 
83.55

>  <POPULARITY>  (750) 
24.8

>  <PROTECTED>  (750) 
TRUE

>  <SMILES>  (750) 
N[C@@H](CO)CC(=O)O

>  <INCHIKEY>  (750) 
BUZICZZQJDLXJN-GSVOUGTGSA-N

$$$$
Tyr_Et
     RDKit          2D

 15 15  0  0  0  0  0  0  0  0999 V2000
   -2.5029    1.6750    0.0000 N   0  0  0  0  0  0  0  0  0  0  0  0
   -2.9013    0.2288    0.0000 C   0  0  0  0  0  0  0  0  0  0  0  0
   -1.8481   -0.8393    0.0000 C   0  0  0  0  0  0  0  0  0  0  0  0
   -0.3966   -0.4612    0.0000 C   0  0  0  0  0  0  0  0  0  0  0  0
    0.0019    0.9849    0.0000 C   0  0  0  0  0  0  0  0  0  0  0  0
    1.4534    1.3629    0.0000 C   0  0  0  0  0  0  0  0  0  0  0  0
    2.5066    0.2948    0.0000 C   0  0  0  0  0  0  0  0  0  0  0  0
    3.9582    0.6728    0.0000 O   0  0  0  0  0  0  0  0  0  0  0  0
    5.0114   -0.3953    0.0000 C   0  0  0  0  0  0  0  0  0  0  0  0
    6.4629   -0.0173    0.0000 C   0  0  0  0  0  0  0  0  0  0  0  0
    2.1082   -1.1513    0.0000 C   0  0  0  0  0  0  0  0  0  0  0  0
    0.6566   -1.5293    0.0000 C   0  0  0  0  0  0  0  0  0  0  0  0
   -4.3529   -0.1492    0.0000 C   0  0  0  0  0  0  0  0  0  0  0  0
   -4.7513   -1.5953    0.0000 O   0  0  0  0  0  0  0  0  0  0  0  0
   -5.4061    0.9189    0.0000 O   0  0  0  0  0  0  0  0  0  0  0  0
  2  1  1  1
  2  3  1  0
  3  4  1  0
  4  5  1  0
  5  6  2  0
  6  7  1  0
  7  8  1  0
  8  9  1  0
  9 10  1  0
  7 11  2  0
 11 12  1  0
  2 13  1  0
 13 14  2  0
 13 15  1  0
 12  4  2  0
M  END
>  <rName>  (751) 
Tyr_Et

>  <PQ_SYMBOL>  (751) 
Tyr_Et

>  <FULL_NAME>  (751) 
O-Ethyl-L-Tyrosine

>  <IUPAC_CONDENSED>  (751) 
Tyr(Et)

>  <IUPAC>  (751) 
(2S)-2-amino-3-(4-ethoxyphenyl)propanoic acid

>  <TYPE>  (751) 
Backbone

>  <CLASS>  (751) 
alpha

>  <ANALOG>  (751) 
Tyr

>  <MOL_WT>  (751) 
209.24499999999998

>  <LOGP>  (751) 
1.0396999999999998

>  <TPSA>  (751) 
72.55

>  <POPULARITY>  (751) 
17.6

>  <PROTECTED>  (751) 
TRUE

>  <SMILES>  (751) 
N[C@@H](Cc1(ccc(OCC)cc1))C(=O)O

>  <INCHIKEY>  (751) 
RMYPEYHEPIZYDJ-JTQLQIEISA-N

$$$$
Phe_34diOMe
     RDKit          2D

 16 16  0  0  0  0  0  0  0  0999 V2000
   -2.7122    1.7058    0.0000 N   0  0  0  0  0  0  0  0  0  0  0  0
   -2.9205    0.2203    0.0000 C   0  0  0  0  0  0  0  0  0  0  0  0
   -1.7383   -0.7029    0.0000 C   0  0  0  0  0  0  0  0  0  0  0  0
   -0.3477   -0.1406    0.0000 C   0  0  0  0  0  0  0  0  0  0  0  0
   -0.1393    1.3449    0.0000 C   0  0  0  0  0  0  0  0  0  0  0  0
    1.2513    1.9072    0.0000 C   0  0  0  0  0  0  0  0  0  0  0  0
    2.4336    0.9840    0.0000 C   0  0  0  0  0  0  0  0  0  0  0  0
    3.8242    1.5463    0.0000 O   0  0  0  0  0  0  0  0  0  0  0  0
    5.0065    0.6231    0.0000 C   0  0  0  0  0  0  0  0  0  0  0  0
    2.2252   -0.5015    0.0000 C   0  0  0  0  0  0  0  0  0  0  0  0
    3.4075   -1.4246    0.0000 O   0  0  0  0  0  0  0  0  0  0  0  0
    3.1991   -2.9101    0.0000 C   0  0  0  0  0  0  0  0  0  0  0  0
    0.8346   -1.0637    0.0000 C   0  0  0  0  0  0  0  0  0  0  0  0
   -4.3112   -0.3420    0.0000 C   0  0  0  0  0  0  0  0  0  0  0  0
   -4.5195   -1.8274    0.0000 O   0  0  0  0  0  0  0  0  0  0  0  0
   -5.4934    0.5812    0.0000 O   0  0  0  0  0  0  0  0  0  0  0  0
  2  1  1  1
  2  3  1  0
  3  4  1  0
  4  5  1  0
  5  6  2  0
  6  7  1  0
  7  8  1  0
  8  9  1  0
  7 10  2  0
 10 11  1  0
 11 12  1  0
 10 13  1  0
  2 14  1  0
 14 15  2  0
 14 16  1  0
 13  4  2  0
M  END
>  <rName>  (752) 
Phe_34diOMe

>  <PQ_SYMBOL>  (752) 
Phe_34diOMe

>  <FULL_NAME>  (752) 
(3,4)-Dimethoxy-L-Phenylalanine

>  <IUPAC_CONDENSED>  (752) 
Phe(3,4-diOMe)

>  <IUPAC>  (752) 
(2S)-2-amino-3-(3,4-dimethoxyphenyl)propanoic acid

>  <TYPE>  (752) 
Backbone

>  <CLASS>  (752) 
alpha

>  <ANALOG>  (752) 
Tyr

>  <MOL_WT>  (752) 
225.24399999999997

>  <LOGP>  (752) 
0.6581999999999999

>  <TPSA>  (752) 
81.78

>  <POPULARITY>  (752) 
13.2

>  <PROTECTED>  (752) 
TRUE

>  <SMILES>  (752) 
N[C@@H](Cc1(ccc(OC)c(OC)c1))C(=O)O

>  <INCHIKEY>  (752) 
VWTFNYVAFGYEKI-QMMMGPOBSA-N

$$$$
Tic_7OH
     RDKit          2D

 14 15  0  0  0  0  0  0  0  0999 V2000
   -1.5721   -1.5367    0.0000 N   0  0  0  0  0  0  0  0  0  0  0  0
   -2.0048   -0.1005    0.0000 C   0  0  0  0  0  0  0  0  0  0  0  0
   -0.9774    0.9924    0.0000 C   0  0  0  0  0  0  0  0  0  0  0  0
    0.4828    0.6490    0.0000 C   0  0  0  0  0  0  0  0  0  0  0  0
    1.5103    1.7419    0.0000 C   0  0  0  0  0  0  0  0  0  0  0  0
    2.9704    1.3985    0.0000 C   0  0  0  0  0  0  0  0  0  0  0  0
    3.4032   -0.0377    0.0000 C   0  0  0  0  0  0  0  0  0  0  0  0
    4.8633   -0.3811    0.0000 O   0  0  0  0  0  0  0  0  0  0  0  0
    2.3757   -1.1306    0.0000 C   0  0  0  0  0  0  0  0  0  0  0  0
    0.9155   -0.7872    0.0000 C   0  0  0  0  0  0  0  0  0  0  0  0
   -0.1119   -1.8801    0.0000 C   0  0  0  0  0  0  0  0  0  0  0  0
   -3.4650    0.2429    0.0000 C   0  0  0  0  0  0  0  0  0  0  0  0
   -4.4924   -0.8500    0.0000 O   0  0  0  0  0  0  0  0  0  0  0  0
   -3.8977    1.6791    0.0000 O   0  0  0  0  0  0  0  0  0  0  0  0
  1  2  1  0
  2  3  1  0
  3  4  1  0
  4  5  1  0
  5  6  2  0
  6  7  1  0
  7  8  1  0
  7  9  2  0
  9 10  1  0
 10 11  1  0
  2 12  1  6
 12 13  2  0
 12 14  1  0
 10  4  2  0
 11  1  1  0
M  END
>  <rName>  (753) 
Tic_7OH

>  <PQ_SYMBOL>  (753) 
Tic_7OH

>  <FULL_NAME>  (753) 
(S)-7-Hydroxy-1,2,3,4-Tetrahydroisoquinoline-3-Carboxylic acid

>  <IUPAC_CONDENSED>  (753) 
Tic(7-OH)

>  <IUPAC>  (753) 
(4S)-9-hydroxy-3-azabicyclo[4.4.0]deca-1(10),6,8-triene-4-carboxylic acid

>  <TYPE>  (753) 
Backbone

>  <CLASS>  (753) 
alpha

>  <ANALOG>  (753) 
Pro

>  <MOL_WT>  (753) 
193.20199999999994

>  <LOGP>  (753) 
0.49109999999999987

>  <TPSA>  (753) 
69.56

>  <POPULARITY>  (753) 
11.4

>  <PROTECTED>  (753) 
TRUE

>  <SMILES>  (753) 
N2[C@@H](Cc1(ccc(O)cc1C2))C(=O)O

>  <INCHIKEY>  (753) 
HIKCRLDSCSWXML-VIFPVBQESA-N

$$$$
Phg_4Cl
     RDKit          2D

 12 12  0  0  0  0  0  0  0  0999 V2000
   -2.1139   -2.0272    0.0000 N   0  0  0  0  0  0  0  0  0  0  0  0
   -1.6041   -0.6165    0.0000 C   0  0  0  0  0  0  0  0  0  0  0  0
   -0.1275   -0.3527    0.0000 C   0  0  0  0  0  0  0  0  0  0  0  0
    0.3824    1.0580    0.0000 C   0  0  0  0  0  0  0  0  0  0  0  0
    1.8590    1.3219    0.0000 C   0  0  0  0  0  0  0  0  0  0  0  0
    2.8258    0.1750    0.0000 C   0  0  0  0  0  0  0  0  0  0  0  0
    4.3024    0.4388    0.0000 Cl  0  0  0  0  0  0  0  0  0  0  0  0
    2.3159   -1.2357    0.0000 C   0  0  0  0  0  0  0  0  0  0  0  0
    0.8393   -1.4995    0.0000 C   0  0  0  0  0  0  0  0  0  0  0  0
   -2.5709    0.5304    0.0000 C   0  0  0  0  0  0  0  0  0  0  0  0
   -2.0610    1.9411    0.0000 O   0  0  0  0  0  0  0  0  0  0  0  0
   -4.0475    0.2665    0.0000 O   0  0  0  0  0  0  0  0  0  0  0  0
  2  1  1  6
  2  3  1  0
  3  4  1  0
  4  5  2  0
  5  6  1  0
  6  7  1  0
  6  8  2  0
  8  9  1  0
  2 10  1  0
 10 11  2  0
 10 12  1  0
  9  3  2  0
M  END
>  <rName>  (754) 
Phg_4Cl

>  <PQ_SYMBOL>  (754) 
Phg_4Cl

>  <FULL_NAME>  (754) 
L-4-Chlorophenylglycine

>  <IUPAC_CONDENSED>  (754) 
Phg(4-Cl)

>  <IUPAC>  (754) 
(2S)-2-amino-2-(4-chlorophenyl)acetic acid

>  <TYPE>  (754) 
Backbone

>  <CLASS>  (754) 
alpha

>  <ANALOG>  (754) 
X

>  <MOL_WT>  (754) 
185.60999999999999

>  <LOGP>  (754) 
1.4244

>  <TPSA>  (754) 
63.32000000000001

>  <POPULARITY>  (754) 
12.9

>  <PROTECTED>  (754) 
TRUE

>  <SMILES>  (754) 
N[C@@H](c1(ccc(Cl)cc1))C(=O)O

>  <INCHIKEY>  (754) 
QGJGBYXRJVIYGA-ZETCQYMHSA-N

$$$$
N_4piperidyl-G
     RDKit          2D

 11 11  0  0  0  0  0  0  0  0999 V2000
   -0.6853   -0.6503    0.0000 N   0  0  0  0  0  0  0  0  0  0  0  0
    0.7732   -0.3002    0.0000 C   0  0  0  0  0  0  0  0  0  0  0  0
    1.1993    1.1380    0.0000 C   0  0  0  0  0  0  0  0  0  0  0  0
    2.6579    1.4881    0.0000 C   0  0  0  0  0  0  0  0  0  0  0  0
    3.6904    0.4000    0.0000 N   0  0  0  0  0  0  0  0  0  0  0  0
    3.2643   -1.0382    0.0000 C   0  0  0  0  0  0  0  0  0  0  0  0
    1.8057   -1.3883    0.0000 C   0  0  0  0  0  0  0  0  0  0  0  0
   -1.7178    0.4378    0.0000 C   0  0  0  0  0  0  0  0  0  0  0  0
   -3.1764    0.0877    0.0000 C   0  0  0  0  0  0  0  0  0  0  0  0
   -3.6025   -1.3505    0.0000 O   0  0  0  0  0  0  0  0  0  0  0  0
   -4.2089    1.1758    0.0000 O   0  0  0  0  0  0  0  0  0  0  0  0
  1  2  1  0
  2  3  1  0
  3  4  1  0
  4  5  1  0
  5  6  1  0
  6  7  1  0
  1  8  1  0
  8  9  1  0
  9 10  2  0
  9 11  1  0
  7  2  1  0
M  END
>  <rName>  (755) 
N_4piperidyl-G

>  <PQ_SYMBOL>  (755) 
N_4piperidyl-G

>  <FULL_NAME>  (755) 
N-4-Piperidinyl-Glycine

>  <IUPAC_CONDENSED>  (755) 
4-piperidyl-Gly

>  <IUPAC>  (755) 
2-((piperidin-4-yl)amino)acetic acid

>  <TYPE>  (755) 
Backbone

>  <CLASS>  (755) 
alpha

>  <ANALOG>  (755) 
Gly

>  <MOL_WT>  (755) 
158.201

>  <LOGP>  (755) 
-0.5873999999999997

>  <TPSA>  (755) 
61.36

>  <POPULARITY>  (755) 
10.8

>  <PROTECTED>  (755) 
TRUE

>  <SMILES>  (755) 
N(C1(CCNCC1))CC(=O)O

>  <INCHIKEY>  (755) 
GMYSPKJLZSKGSC-UHFFFAOYSA-N

$$$$
Pro_34dehydro
     RDKit          2D

  8  8  0  0  0  0  0  0  0  0999 V2000
   -0.8342   -1.2135    0.0000 N   0  0  0  0  0  0  0  0  0  0  0  0
    0.0475   -0.0000    0.0000 C   0  0  0  0  0  0  0  0  0  0  0  0
   -0.8342    1.2135    0.0000 C   0  0  0  0  0  0  0  0  0  0  0  0
   -2.2608    0.7500    0.0000 C   0  0  0  0  0  0  0  0  0  0  0  0
   -2.2608   -0.7500    0.0000 C   0  0  0  0  0  0  0  0  0  0  0  0
    1.5475    0.0000    0.0000 C   0  0  0  0  0  0  0  0  0  0  0  0
    2.2975    1.2990    0.0000 O   0  0  0  0  0  0  0  0  0  0  0  0
    2.2975   -1.2990    0.0000 O   0  0  0  0  0  0  0  0  0  0  0  0
  1  2  1  0
  2  3  1  0
  3  4  2  0
  4  5  1  0
  2  6  1  1
  6  7  2  0
  6  8  1  0
  5  1  1  0
M  END
>  <rName>  (756) 
Pro_34dehydro

>  <PQ_SYMBOL>  (756) 
Pro_34dehydro

>  <FULL_NAME>  (756) 
(3,4)-Dehydro-L-Proline

>  <IUPAC_CONDENSED>  (756) 
Pro(3,4-dehydro)

>  <IUPAC>  (756) 
(2S)-2,5-dihydro-1H-pyrrole-2-carboxylic acid

>  <TYPE>  (756) 
Backbone

>  <CLASS>  (756) 
alpha

>  <ANALOG>  (756) 
Pro

>  <MOL_WT>  (756) 
113.116

>  <LOGP>  (756) 
-0.4010000000000001

>  <TPSA>  (756) 
49.33

>  <POPULARITY>  (756) 
15.7

>  <PROTECTED>  (756) 
TRUE

>  <SMILES>  (756) 
N1[C@@H](C=CC1)C(=O)O

>  <INCHIKEY>  (756) 
OMGHIGVFLOPEHJ-BYPYZUCNSA-N

$$$$
NEt-A
     RDKit          2D

  8  7  0  0  0  0  0  0  0  0999 V2000
   -0.9331   -0.9230    0.0000 N   0  0  0  0  0  0  0  0  0  0  0  0
   -1.8248    0.2832    0.0000 C   0  0  0  0  0  0  0  0  0  0  0  0
   -3.3153    0.1141    0.0000 C   0  0  0  0  0  0  0  0  0  0  0  0
    0.5573   -0.7539    0.0000 C   0  0  0  0  0  0  0  0  0  0  0  0
    1.4490   -1.9601    0.0000 C   0  0  0  0  0  0  0  0  0  0  0  0
    1.1561    0.6215    0.0000 C   0  0  0  0  0  0  0  0  0  0  0  0
    0.2644    1.8276    0.0000 O   0  0  0  0  0  0  0  0  0  0  0  0
    2.6465    0.7906    0.0000 O   0  0  0  0  0  0  0  0  0  0  0  0
  1  2  1  0
  2  3  1  0
  1  4  1  0
  4  5  1  6
  4  6  1  0
  6  7  2  0
  6  8  1  0
M  END
>  <rName>  (757) 
NEt-A

>  <PQ_SYMBOL>  (757) 
NEt-A

>  <FULL_NAME>  (757) 
N-Ethylalanine

>  <IUPAC_CONDENSED>  (757) 
Et-Ala

>  <IUPAC>  (757) 
(2S)-2-(ethylamino)propanoic acid

>  <TYPE>  (757) 
Backbone

>  <CLASS>  (757) 
alpha

>  <ANALOG>  (757) 
Ala

>  <MOL_WT>  (757) 
117.14799999999998

>  <LOGP>  (757) 
0.06900000000000012

>  <TPSA>  (757) 
49.33

>  <POPULARITY>  (757) 
17.9

>  <PROTECTED>  (757) 
TRUE

>  <SMILES>  (757) 
N(CC)[C@@H](C)C(=O)O

>  <INCHIKEY>  (757) 
DATPFTPVGIHCCM-BYPYZUCNSA-N

$$$$
5-Ava
     RDKit          2D

  8  7  0  0  0  0  0  0  0  0999 V2000
    4.2551   -0.1865    0.0000 N   0  0  0  0  0  0  0  0  0  0  0  0
    2.8948    0.4455    0.0000 C   0  0  0  0  0  0  0  0  0  0  0  0
    1.6672   -0.4165    0.0000 C   0  0  0  0  0  0  0  0  0  0  0  0
    0.3069    0.2155    0.0000 C   0  0  0  0  0  0  0  0  0  0  0  0
   -0.9207   -0.6465    0.0000 C   0  0  0  0  0  0  0  0  0  0  0  0
   -2.2810   -0.0145    0.0000 C   0  0  0  0  0  0  0  0  0  0  0  0
   -2.4138    1.4796    0.0000 O   0  0  0  0  0  0  0  0  0  0  0  0
   -3.5085   -0.8766    0.0000 O   0  0  0  0  0  0  0  0  0  0  0  0
  1  2  1  0
  2  3  1  0
  3  4  1  0
  4  5  1  0
  5  6  1  0
  6  7  2  0
  6  8  1  0
M  END
>  <rName>  (758) 
5-Ava

>  <PQ_SYMBOL>  (758) 
5-Ava

>  <FULL_NAME>  (758) 
5-aminovaleric acid

>  <IUPAC_CONDENSED>  (758) 
5-Ava

>  <IUPAC>  (758) 
5-aminopentanoic acid

>  <TYPE>  (758) 
Backbone

>  <CLASS>  (758) 
delta

>  <ANALOG>  (758) 
Gly

>  <MOL_WT>  (758) 
117.14799999999998

>  <LOGP>  (758) 
0.20000000000000012

>  <TPSA>  (758) 
63.32000000000001

>  <POPULARITY>  (758) 
18.7

>  <PROTECTED>  (758) 
TRUE

>  <SMILES>  (758) 
NCCCCC(=O)O

>  <INCHIKEY>  (758) 
JJMDCOVWQOJGCB-UHFFFAOYSA-N

$$$$
6-Ahx
     RDKit          2D

  9  8  0  0  0  0  0  0  0  0999 V2000
   -4.8948    0.3895    0.0000 N   0  0  0  0  0  0  0  0  0  0  0  0
   -3.6312   -0.4188    0.0000 C   0  0  0  0  0  0  0  0  0  0  0  0
   -2.2994    0.2714    0.0000 C   0  0  0  0  0  0  0  0  0  0  0  0
   -1.0358   -0.5368    0.0000 C   0  0  0  0  0  0  0  0  0  0  0  0
    0.2960    0.1534    0.0000 C   0  0  0  0  0  0  0  0  0  0  0  0
    1.5596   -0.6549    0.0000 C   0  0  0  0  0  0  0  0  0  0  0  0
    2.8913    0.0353    0.0000 C   0  0  0  0  0  0  0  0  0  0  0  0
    2.9595    1.5338    0.0000 O   0  0  0  0  0  0  0  0  0  0  0  0
    4.1550   -0.7729    0.0000 O   0  0  0  0  0  0  0  0  0  0  0  0
  1  2  1  0
  2  3  1  0
  3  4  1  0
  4  5  1  0
  5  6  1  0
  6  7  1  0
  7  8  2  0
  7  9  1  0
M  END
>  <rName>  (759) 
6-Ahx

>  <PQ_SYMBOL>  (759) 
6-Ahx

>  <FULL_NAME>  (759) 
6-aminohexanoic acid

>  <IUPAC_CONDENSED>  (759) 
6-Ahx

>  <IUPAC>  (759) 
6-aminohexanoic acid

>  <TYPE>  (759) 
Backbone

>  <CLASS>  (759) 
epsilon

>  <ANALOG>  (759) 
Gly

>  <MOL_WT>  (759) 
131.175

>  <LOGP>  (759) 
0.5901000000000001

>  <TPSA>  (759) 
63.32000000000001

>  <POPULARITY>  (759) 
37.4

>  <PROTECTED>  (759) 
TRUE

>  <SMILES>  (759) 
NCCCCCC(=O)O

>  <INCHIKEY>  (759) 
SLXKOJJOQWFEFD-UHFFFAOYSA-N

$$$$
Gaba_33diMe
     RDKit          2D

  9  8  0  0  0  0  0  0  0  0999 V2000
    2.5702   -1.3248    0.0000 N   0  0  0  0  0  0  0  0  0  0  0  0
    2.2010    0.1290    0.0000 C   0  0  0  0  0  0  0  0  0  0  0  0
    0.7573    0.5362    0.0000 C   0  0  0  0  0  0  0  0  0  0  0  0
    1.1645    1.9799    0.0000 C   0  0  0  0  0  0  0  0  0  0  0  0
    0.3501   -0.9074    0.0000 C   0  0  0  0  0  0  0  0  0  0  0  0
   -0.6863    0.9434    0.0000 C   0  0  0  0  0  0  0  0  0  0  0  0
   -1.7608   -0.1032    0.0000 C   0  0  0  0  0  0  0  0  0  0  0  0
   -1.3916   -1.5571    0.0000 O   0  0  0  0  0  0  0  0  0  0  0  0
   -3.2045    0.3040    0.0000 O   0  0  0  0  0  0  0  0  0  0  0  0
  1  2  1  0
  2  3  1  0
  3  4  1  0
  3  5  1  0
  3  6  1  0
  6  7  1  0
  7  8  2  0
  7  9  1  0
M  END
>  <rName>  (760) 
Gaba_33diMe

>  <PQ_SYMBOL>  (760) 
Gaba_33diMe

>  <FULL_NAME>  (760) 
4-amino-3,3-dimethyl-butyric acid

>  <IUPAC_CONDENSED>  (760) 
Gaba(3,3-diMe)

>  <IUPAC>  (760) 
4-amino-3,3-dimethylbutanoic acid

>  <TYPE>  (760) 
Backbone

>  <CLASS>  (760) 
gamma

>  <ANALOG>  (760) 
Ala

>  <MOL_WT>  (760) 
131.17499999999998

>  <LOGP>  (760) 
0.4460000000000001

>  <TPSA>  (760) 
63.32000000000001

>  <POPULARITY>  (760) 
14

>  <PROTECTED>  (760) 
TRUE

>  <SMILES>  (760) 
NCC(C)(C)CC(=O)O

>  <INCHIKEY>  (760) 
BDEGNHSSXDSZRQ-UHFFFAOYSA-N

$$$$
bAla_b_bdiMe
     RDKit          2D

  8  7  0  0  0  0  0  0  0  0999 V2000
   -2.7534   -0.3439    0.0000 N   0  0  0  0  0  0  0  0  0  0  0  0
   -1.6552    0.6779    0.0000 C   0  0  0  0  0  0  0  0  0  0  0  0
   -0.2212    0.2378    0.0000 C   0  0  0  0  0  0  0  0  0  0  0  0
    0.2189    1.6717    0.0000 C   0  0  0  0  0  0  0  0  0  0  0  0
   -0.6614   -1.1962    0.0000 C   0  0  0  0  0  0  0  0  0  0  0  0
    1.2127   -0.2024    0.0000 C   0  0  0  0  0  0  0  0  0  0  0  0
    2.3109    0.8194    0.0000 O   0  0  0  0  0  0  0  0  0  0  0  0
    1.5485   -1.6643    0.0000 O   0  0  0  0  0  0  0  0  0  0  0  0
  1  2  1  0
  2  3  1  0
  3  4  1  0
  3  5  1  0
  3  6  1  0
  6  7  2  0
  6  8  1  0
M  END
>  <rName>  (761) 
bAla_b_bdiMe

>  <PQ_SYMBOL>  (761) 
bAla_b_bdiMe

>  <FULL_NAME>  (761) 
3-amino-2,2-dimethyl-propionic acid

>  <IUPAC_CONDENSED>  (761) 
bAla(b,b-diMe)

>  <IUPAC>  (761) 
3-amino-2,2-dimethylpropanoic acid

>  <TYPE>  (761) 
Backbone

>  <CLASS>  (761) 
beta

>  <ANALOG>  (761) 
Ala

>  <MOL_WT>  (761) 
117.14799999999997

>  <LOGP>  (761) 
0.05590000000000023

>  <TPSA>  (761) 
63.32000000000001

>  <POPULARITY>  (761) 
17.6

>  <PROTECTED>  (761) 
TRUE

>  <SMILES>  (761) 
NCC(C)(C)C(=O)O

>  <INCHIKEY>  (761) 
DGNHGRLDBKAPEH-UHFFFAOYSA-N

$$$$
Gamma4-Leu
     RDKit          2D

 11 10  0  0  0  0  0  0  0  0999 V2000
   -0.8169   -1.6084    0.0000 N   0  0  0  0  0  0  0  0  0  0  0  0
   -0.6128   -0.1223    0.0000 C   0  0  0  0  0  0  0  0  0  0  0  0
   -1.7977    0.7974    0.0000 C   0  0  0  0  0  0  0  0  0  0  0  0
   -3.1867    0.2312    0.0000 C   0  0  0  0  0  0  0  0  0  0  0  0
   -4.3717    1.1509    0.0000 C   0  0  0  0  0  0  0  0  0  0  0  0
   -3.3908   -1.2549    0.0000 C   0  0  0  0  0  0  0  0  0  0  0  0
    0.7762    0.4440    0.0000 C   0  0  0  0  0  0  0  0  0  0  0  0
    1.9611   -0.4758    0.0000 C   0  0  0  0  0  0  0  0  0  0  0  0
    3.3501    0.0905    0.0000 C   0  0  0  0  0  0  0  0  0  0  0  0
    3.5542    1.5766    0.0000 O   0  0  0  0  0  0  0  0  0  0  0  0
    4.5350   -0.8292    0.0000 O   0  0  0  0  0  0  0  0  0  0  0  0
  2  1  1  1
  2  3  1  0
  3  4  1  0
  4  5  1  0
  4  6  1  0
  2  7  1  0
  7  8  1  0
  8  9  1  0
  9 10  2  0
  9 11  1  0
M  END
>  <rName>  (762) 
Gamma4-Leu

>  <PQ_SYMBOL>  (762) 
Gamma4-Leu

>  <FULL_NAME>  (762) 
(4R)-4-amino-6-methylheptanoic acid

>  <IUPAC_CONDENSED>  (762) 
Gamma4-Leu

>  <IUPAC>  (762) 
(4R)-4-amino-6-methylheptanoic acid

>  <TYPE>  (762) 
Backbone

>  <CLASS>  (762) 
gamma

>  <ANALOG>  (762) 
Leu

>  <MOL_WT>  (762) 
159.229

>  <LOGP>  (762) 
1.2245999999999997

>  <TPSA>  (762) 
63.32000000000001

>  <POPULARITY>  (762) 
10.4

>  <PROTECTED>  (762) 
TRUE

>  <SMILES>  (762) 
N[C@@H](CC(C)C)CCC(=O)O

>  <INCHIKEY>  (762) 
NXIZZVSUSXUIEX-SSDOTTSWSA-N

$$$$
bAla_3SMbzl
     RDKit          2D

 14 14  0  0  0  0  0  0  0  0999 V2000
   -1.3163    1.1838    0.0000 N   0  0  0  0  0  0  0  0  0  0  0  0
   -1.5499   -0.2979    0.0000 C   0  0  0  0  0  0  0  0  0  0  0  0
   -0.3836   -1.2411    0.0000 C   0  0  0  0  0  0  0  0  0  0  0  0
    1.0164   -0.7026    0.0000 C   0  0  0  0  0  0  0  0  0  0  0  0
    1.2501    0.7790    0.0000 C   0  0  0  0  0  0  0  0  0  0  0  0
    2.6501    1.3175    0.0000 C   0  0  0  0  0  0  0  0  0  0  0  0
    3.8164    0.3743    0.0000 C   0  0  0  0  0  0  0  0  0  0  0  0
    5.2165    0.9127    0.0000 C   0  0  0  0  0  0  0  0  0  0  0  0
    3.5828   -1.1074    0.0000 C   0  0  0  0  0  0  0  0  0  0  0  0
    2.1827   -1.6459    0.0000 C   0  0  0  0  0  0  0  0  0  0  0  0
   -2.9500   -0.8363    0.0000 C   0  0  0  0  0  0  0  0  0  0  0  0
   -4.1163    0.1069    0.0000 C   0  0  0  0  0  0  0  0  0  0  0  0
   -3.8826    1.5886    0.0000 O   0  0  0  0  0  0  0  0  0  0  0  0
   -5.5163   -0.4316    0.0000 O   0  0  0  0  0  0  0  0  0  0  0  0
  2  1  1  1
  2  3  1  0
  3  4  1  0
  4  5  1  0
  5  6  2  0
  6  7  1  0
  7  8  1  0
  7  9  2  0
  9 10  1  0
  2 11  1  0
 11 12  1  0
 12 13  2  0
 12 14  1  0
 10  4  2  0
M  END
>  <rName>  (763) 
bAla_3SMbzl

>  <PQ_SYMBOL>  (763) 
bAla_3SMbzl

>  <FULL_NAME>  (763) 
(3S)-3-amino-4-(4-methylphenyl)butanoic Acid

>  <IUPAC_CONDENSED>  (763) 
bAla(3S-Mbzl)

>  <IUPAC>  (763) 
(3S)-3-amino-4-(4-methylphenyl)butanoic acid

>  <TYPE>  (763) 
Backbone

>  <CLASS>  (763) 
beta

>  <ANALOG>  (763) 
Phe

>  <MOL_WT>  (763) 
193.24599999999995

>  <LOGP>  (763) 
1.3395200000000003

>  <TPSA>  (763) 
63.32000000000001

>  <POPULARITY>  (763) 
8

>  <PROTECTED>  (763) 
TRUE

>  <SMILES>  (763) 
N[C@@H](Cc1(ccc(C)cc1))CC(=O)O

>  <INCHIKEY>  (763) 
OCNPVFDANAYUCR-JTQLQIEISA-N

$$$$
bAla_3Snaphth2yl
     RDKit          2D

 16 17  0  0  0  0  0  0  0  0999 V2000
   -2.7878   -1.8484    0.0000 N   0  0  0  0  0  0  0  0  0  0  0  0
   -1.9911   -0.5775    0.0000 C   0  0  0  0  0  0  0  0  0  0  0  0
   -0.4921   -0.6320    0.0000 C   0  0  0  0  0  0  0  0  0  0  0  0
    0.2102   -1.9575    0.0000 C   0  0  0  0  0  0  0  0  0  0  0  0
    1.7092   -2.0120    0.0000 C   0  0  0  0  0  0  0  0  0  0  0  0
    2.5060   -0.7411    0.0000 C   0  0  0  0  0  0  0  0  0  0  0  0
    4.0050   -0.7956    0.0000 C   0  0  0  0  0  0  0  0  0  0  0  0
    4.8017    0.4753    0.0000 C   0  0  0  0  0  0  0  0  0  0  0  0
    4.0994    1.8007    0.0000 C   0  0  0  0  0  0  0  0  0  0  0  0
    2.6004    1.8552    0.0000 C   0  0  0  0  0  0  0  0  0  0  0  0
    1.8037    0.5843    0.0000 C   0  0  0  0  0  0  0  0  0  0  0  0
    0.3047    0.6389    0.0000 C   0  0  0  0  0  0  0  0  0  0  0  0
   -2.6933    0.7479    0.0000 C   0  0  0  0  0  0  0  0  0  0  0  0
   -4.1923    0.8025    0.0000 C   0  0  0  0  0  0  0  0  0  0  0  0
   -4.9891   -0.4685    0.0000 O   0  0  0  0  0  0  0  0  0  0  0  0
   -4.8946    2.1279    0.0000 O   0  0  0  0  0  0  0  0  0  0  0  0
  2  1  1  6
  2  3  1  0
  3  4  1  0
  4  5  2  0
  5  6  1  0
  6  7  2  0
  7  8  1  0
  8  9  2  0
  9 10  1  0
 10 11  2  0
 11 12  1  0
  2 13  1  0
 13 14  1  0
 14 15  2  0
 14 16  1  0
 11  6  1  0
 12  3  2  0
M  END
>  <rName>  (764) 
bAla_3Snaphth2yl

>  <PQ_SYMBOL>  (764) 
bAla_3Snaphth2yl

>  <FULL_NAME>  (764) 
(R)-3-Amino-3-(2-naphthyl)-propionic acid

>  <IUPAC_CONDENSED>  (764) 
bAla(3S-naphth-2-yl)

>  <IUPAC>  (764) 
(3R)-3-amino-3-(naphthalen-2-yl)propanoic acid

>  <TYPE>  (764) 
Backbone

>  <CLASS>  (764) 
beta

>  <ANALOG>  (764) 
X

>  <MOL_WT>  (764) 
215.25199999999995

>  <LOGP>  (764) 
2.3143000000000002

>  <TPSA>  (764) 
63.32000000000001

>  <POPULARITY>  (764) 
6.9

>  <PROTECTED>  (764) 
TRUE

>  <SMILES>  (764) 
N[C@@H](c2(ccc1(ccccc1c2)))CC(=O)O

>  <INCHIKEY>  (764) 
JASNXOXPNZWQRV-GFCCVEGCSA-N

$$$$
bAla_3Snaphth2ylmethyl
     RDKit          2D

 17 18  0  0  0  0  0  0  0  0999 V2000
   -1.9056    1.0350    0.0000 N   0  0  0  0  0  0  0  0  0  0  0  0
   -2.3974   -0.3821    0.0000 C   0  0  0  0  0  0  0  0  0  0  0  0
   -1.4161   -1.5166    0.0000 C   0  0  0  0  0  0  0  0  0  0  0  0
    0.0570   -1.2340    0.0000 C   0  0  0  0  0  0  0  0  0  0  0  0
    1.0384   -2.3684    0.0000 C   0  0  0  0  0  0  0  0  0  0  0  0
    2.5115   -2.0858    0.0000 C   0  0  0  0  0  0  0  0  0  0  0  0
    3.0033   -0.6688    0.0000 C   0  0  0  0  0  0  0  0  0  0  0  0
    4.4764   -0.3862    0.0000 C   0  0  0  0  0  0  0  0  0  0  0  0
    4.9683    1.0309    0.0000 C   0  0  0  0  0  0  0  0  0  0  0  0
    3.9870    2.1654    0.0000 C   0  0  0  0  0  0  0  0  0  0  0  0
    2.5138    1.8828    0.0000 C   0  0  0  0  0  0  0  0  0  0  0  0
    2.0220    0.4657    0.0000 C   0  0  0  0  0  0  0  0  0  0  0  0
    0.5489    0.1831    0.0000 C   0  0  0  0  0  0  0  0  0  0  0  0
   -3.8705   -0.6647    0.0000 C   0  0  0  0  0  0  0  0  0  0  0  0
   -4.8519    0.4697    0.0000 C   0  0  0  0  0  0  0  0  0  0  0  0
   -4.3600    1.8868    0.0000 O   0  0  0  0  0  0  0  0  0  0  0  0
   -6.3250    0.1871    0.0000 O   0  0  0  0  0  0  0  0  0  0  0  0
  2  1  1  1
  2  3  1  0
  3  4  1  0
  4  5  1  0
  5  6  2  0
  6  7  1  0
  7  8  2  0
  8  9  1  0
  9 10  2  0
 10 11  1  0
 11 12  2  0
 12 13  1  0
  2 14  1  0
 14 15  1  0
 15 16  2  0
 15 17  1  0
 12  7  1  0
 13  4  2  0
M  END
>  <rName>  (765) 
bAla_3Snaphth2ylmethyl

>  <PQ_SYMBOL>  (765) 
bAla_3Snaphth2ylmethyl

>  <FULL_NAME>  (765) 
(3S)-3-amino-4-naphthalen-2-ylbutanoic acid

>  <IUPAC_CONDENSED>  (765) 
bAla(3S-naphth-2-ylmethyl)

>  <IUPAC>  (765) 
(3S)-3-amino-4-(naphthalen-2-yl)butanoic acid

>  <TYPE>  (765) 
Backbone

>  <CLASS>  (765) 
beta

>  <ANALOG>  (765) 
Phe

>  <MOL_WT>  (765) 
229.27899999999997

>  <LOGP>  (765) 
2.1843

>  <TPSA>  (765) 
63.32000000000001

>  <POPULARITY>  (765) 
4.7

>  <PROTECTED>  (765) 
TRUE

>  <SMILES>  (765) 
N[C@@H](Cc2(ccc1(ccccc1c2)))CC(=O)O

>  <INCHIKEY>  (765) 
WSVMIVFELRCSPA-ZDUSSCGKSA-N

$$$$
bAad_S
     RDKit          2D

 11 10  0  0  0  0  0  0  0  0999 V2000
    0.8169   -1.6084    0.0000 N   0  0  0  0  0  0  0  0  0  0  0  0
    0.6128   -0.1223    0.0000 C   0  0  0  0  0  0  0  0  0  0  0  0
   -0.7762    0.4440    0.0000 C   0  0  0  0  0  0  0  0  0  0  0  0
   -1.9611   -0.4758    0.0000 C   0  0  0  0  0  0  0  0  0  0  0  0
   -3.3501    0.0905    0.0000 C   0  0  0  0  0  0  0  0  0  0  0  0
   -3.5542    1.5766    0.0000 O   0  0  0  0  0  0  0  0  0  0  0  0
   -4.5350   -0.8292    0.0000 O   0  0  0  0  0  0  0  0  0  0  0  0
    1.7977    0.7974    0.0000 C   0  0  0  0  0  0  0  0  0  0  0  0
    3.1867    0.2312    0.0000 C   0  0  0  0  0  0  0  0  0  0  0  0
    3.3908   -1.2549    0.0000 O   0  0  0  0  0  0  0  0  0  0  0  0
    4.3717    1.1509    0.0000 O   0  0  0  0  0  0  0  0  0  0  0  0
  2  1  1  1
  2  3  1  0
  3  4  1  0
  4  5  1  0
  5  6  2  0
  5  7  1  0
  2  8  1  0
  8  9  1  0
  9 10  2  0
  9 11  1  0
M  END
>  <rName>  (766) 
bAad_S

>  <PQ_SYMBOL>  (766) 
bAad_S

>  <FULL_NAME>  (766) 
beta-L-homoglutamic acid

>  <IUPAC_CONDENSED>  (766) 
bAad(S)

>  <IUPAC>  (766) 
(3S)-3-aminohexanedioic acid

>  <TYPE>  (766) 
Backbone

>  <CLASS>  (766) 
beta

>  <ANALOG>  (766) 
Glu

>  <MOL_WT>  (766) 
161.15699999999998

>  <LOGP>  (766) 
-0.3468000000000003

>  <TPSA>  (766) 
100.62000000000002

>  <POPULARITY>  (766) 
23.9

>  <PROTECTED>  (766) 
TRUE

>  <SMILES>  (766) 
N[C@@H](CCC(=O)O)CC(=O)O

>  <INCHIKEY>  (766) 
XABCFXXGZPWJQP-BYPYZUCNSA-N

$$$$
D-a2-carboxyethylGaba
     RDKit          2D

 12 11  0  0  0  0  0  0  0  0999 V2000
    0.0000    2.0000    0.0000 N   0  0  0  0  0  0  0  0  0  0  0  0
    0.0000    0.5000    0.0000 C   0  0  0  0  0  0  0  0  0  0  0  0
    1.2990   -0.2500    0.0000 C   0  0  0  0  0  0  0  0  0  0  0  0
    2.5981    0.5000    0.0000 C   0  0  0  0  0  0  0  0  0  0  0  0
    3.8971   -0.2500    0.0000 C   0  0  0  0  0  0  0  0  0  0  0  0
    3.8971   -1.7500    0.0000 O   0  0  0  0  0  0  0  0  0  0  0  0
    5.1962    0.5000    0.0000 O   0  0  0  0  0  0  0  0  0  0  0  0
   -1.2990   -0.2500    0.0000 C   0  0  0  0  0  0  0  0  0  0  0  0
   -2.5981    0.5000    0.0000 C   0  0  0  0  0  0  0  0  0  0  0  0
   -3.8971   -0.2500    0.0000 C   0  0  0  0  0  0  0  0  0  0  0  0
   -3.8971   -1.7500    0.0000 O   0  0  0  0  0  0  0  0  0  0  0  0
   -5.1962    0.5000    0.0000 O   0  0  0  0  0  0  0  0  0  0  0  0
  1  2  1  0
  2  3  1  0
  3  4  1  0
  4  5  1  0
  5  6  2  0
  5  7  1  0
  2  8  1  0
  8  9  1  0
  9 10  1  0
 10 11  2  0
 10 12  1  0
M  END
>  <rName>  (767) 
D-a2-carboxyethylGaba

>  <PQ_SYMBOL>  (767) 
D-a2-carboxyethylGaba

>  <FULL_NAME>  (767) 
D-4-Aminoheptanedioic acid

>  <IUPAC_CONDENSED>  (767) 
D-a2-carboxyethylGaba

>  <IUPAC>  (767) 
4-aminoheptanedioic acid

>  <TYPE>  (767) 
Backbone

>  <CLASS>  (767) 
gamma

>  <ANALOG>  (767) 
Glu

>  <MOL_WT>  (767) 
175.18399999999997

>  <LOGP>  (767) 
0.04329999999999962

>  <TPSA>  (767) 
100.62000000000002

>  <POPULARITY>  (767) 
4.7

>  <PROTECTED>  (767) 
FALSE

>  <SMILES>  (767) 
NC(CCC(=O)O)CCC(=O)O

>  <INCHIKEY>  (767) 
DMAJAXIBHLWSQM-UHFFFAOYSA-N

$$$$
ghGlu
     RDKit          2D

 12 11  0  0  0  0  0  0  0  0999 V2000
    0.0000    2.0000    0.0000 N   0  0  0  0  0  0  0  0  0  0  0  0
    0.0000    0.5000    0.0000 C   0  0  0  0  0  0  0  0  0  0  0  0
    1.2990   -0.2500    0.0000 C   0  0  0  0  0  0  0  0  0  0  0  0
    2.5981    0.5000    0.0000 C   0  0  0  0  0  0  0  0  0  0  0  0
    3.8971   -0.2500    0.0000 C   0  0  0  0  0  0  0  0  0  0  0  0
    3.8971   -1.7500    0.0000 O   0  0  0  0  0  0  0  0  0  0  0  0
    5.1962    0.5000    0.0000 O   0  0  0  0  0  0  0  0  0  0  0  0
   -1.2990   -0.2500    0.0000 C   0  0  0  0  0  0  0  0  0  0  0  0
   -2.5981    0.5000    0.0000 C   0  0  0  0  0  0  0  0  0  0  0  0
   -3.8971   -0.2500    0.0000 C   0  0  0  0  0  0  0  0  0  0  0  0
   -3.8971   -1.7500    0.0000 O   0  0  0  0  0  0  0  0  0  0  0  0
   -5.1962    0.5000    0.0000 O   0  0  0  0  0  0  0  0  0  0  0  0
  1  2  1  0
  2  3  1  0
  3  4  1  0
  4  5  1  0
  5  6  2  0
  5  7  1  0
  2  8  1  0
  8  9  1  0
  9 10  1  0
 10 11  2  0
 10 12  1  0
M  END
>  <rName>  (768) 
ghGlu

>  <PQ_SYMBOL>  (768) 
ghGlu

>  <FULL_NAME>  (768) 
L-4-Aminoheptanedioic acid

>  <IUPAC_CONDENSED>  (768) 
ghGlu

>  <IUPAC>  (768) 
4-aminoheptanedioic acid

>  <TYPE>  (768) 
Backbone

>  <CLASS>  (768) 
gamma

>  <ANALOG>  (768) 
Glu

>  <MOL_WT>  (768) 
175.18399999999997

>  <LOGP>  (768) 
0.04329999999999962

>  <TPSA>  (768) 
100.62000000000002

>  <POPULARITY>  (768) 
6.9

>  <PROTECTED>  (768) 
TRUE

>  <SMILES>  (768) 
NC(CCC(=O)O)CCC(=O)O

>  <INCHIKEY>  (768) 
DMAJAXIBHLWSQM-UHFFFAOYSA-N

$$$$
Oic
     RDKit          2D

 12 13  0  0  0  0  0  0  0  0999 V2000
   -0.5689    1.2135    0.0000 N   0  0  0  0  0  0  0  0  0  0  0  0
   -1.4506   -0.0000    0.0000 C   0  0  0  0  0  0  0  0  0  0  0  0
   -0.5689   -1.2135    0.0000 C   0  0  0  0  0  0  0  0  0  0  0  0
    0.8577   -0.7500    0.0000 C   0  0  0  0  0  0  0  0  0  0  0  0
    2.1567   -1.5000    0.0000 C   0  0  0  0  0  0  0  0  0  0  0  0
    3.4557   -0.7500    0.0000 C   0  0  0  0  0  0  0  0  0  0  0  0
    3.4557    0.7500    0.0000 C   0  0  0  0  0  0  0  0  0  0  0  0
    2.1567    1.5000    0.0000 C   0  0  0  0  0  0  0  0  0  0  0  0
    0.8577    0.7500    0.0000 C   0  0  0  0  0  0  0  0  0  0  0  0
   -2.9506   -0.0000    0.0000 C   0  0  0  0  0  0  0  0  0  0  0  0
   -3.7006   -1.2990    0.0000 O   0  0  0  0  0  0  0  0  0  0  0  0
   -3.7006    1.2990    0.0000 O   0  0  0  0  0  0  0  0  0  0  0  0
  1  2  1  0
  2  3  1  0
  4  3  1  1
  4  5  1  0
  5  6  1  0
  6  7  1  0
  7  8  1  0
  9  8  1  1
  2 10  1  1
 10 11  2  0
 10 12  1  0
  9  1  1  0
  9  4  1  0
M  END
>  <rName>  (769) 
Oic

>  <PQ_SYMBOL>  (769) 
Oic

>  <FULL_NAME>  (769) 
L-octahydroindole-2-carboxylic acid

>  <IUPAC_CONDENSED>  (769) 
Oic

>  <IUPAC>  (769) 
(1S,6S,8S)-7-azabicyclo[4.3.0]nonane-8-carboxylic acid

>  <TYPE>  (769) 
Backbone

>  <CLASS>  (769) 
alpha

>  <ANALOG>  (769) 
Pro

>  <MOL_WT>  (769) 
169.22400000000002

>  <LOGP>  (769) 
0.9917

>  <TPSA>  (769) 
49.33

>  <POPULARITY>  (769) 
28.6

>  <PROTECTED>  (769) 
TRUE

>  <SMILES>  (769) 
N1[C@@H](C[C@@H]2(CCCC[C@H]12))C(=O)O

>  <INCHIKEY>  (769) 
CQYBNXGHMBNGCG-FXQIFTODSA-N

$$$$
Arg_NO2
     RDKit          2D

 15 14  0  0  0  0  0  0  0  0999 V2000
    4.0072   -1.7471    0.0000 N   0  0  0  0  0  0  0  0  0  0  0  0
    3.6921   -0.2806    0.0000 C   0  0  0  0  0  0  0  0  0  0  0  0
    2.2644    0.1798    0.0000 C   0  0  0  0  0  0  0  0  0  0  0  0
    1.1520   -0.8264    0.0000 C   0  0  0  0  0  0  0  0  0  0  0  0
   -0.2757   -0.3661    0.0000 C   0  0  0  0  0  0  0  0  0  0  0  0
   -1.3881   -1.3723    0.0000 N   0  0  0  0  0  0  0  0  0  0  0  0
   -2.8157   -0.9119    0.0000 C   0  0  0  0  0  0  0  0  0  0  0  0
   -3.9282   -1.9181    0.0000 N   0  0  0  0  0  0  0  0  0  0  0  0
   -3.1309    0.5546    0.0000 N   0  0  0  0  0  0  0  0  0  0  0  0
   -4.5585    1.0150    0.0000 N   0  0  0  0  0  0  0  0  0  0  0  0
   -5.6710    0.0088    0.0000 O   0  0  0  0  0  0  0  0  0  0  0  0
   -4.8736    2.4815    0.0000 O   0  0  0  0  0  0  0  0  0  0  0  0
    4.8045    0.7256    0.0000 C   0  0  0  0  0  0  0  0  0  0  0  0
    4.4894    2.1921    0.0000 O   0  0  0  0  0  0  0  0  0  0  0  0
    6.2321    0.2652    0.0000 O   0  0  0  0  0  0  0  0  0  0  0  0
  2  1  1  1
  2  3  1  0
  3  4  1  0
  4  5  1  0
  5  6  1  0
  6  7  1  0
  7  8  2  0
  7  9  1  0
  9 10  1  0
 10 11  2  0
 10 12  1  0
  2 13  1  0
 13 14  2  0
 13 15  1  0
M  CHG  2  10   1  12  -1
M  END
>  <rName>  (770) 
Arg_NO2

>  <PQ_SYMBOL>  (770) 
Arg_NO2

>  <FULL_NAME>  (770) 
N-Omega-Nitro-L-Arginine

>  <IUPAC_CONDENSED>  (770) 
Arg(NO2)

>  <IUPAC>  (770) 
(2S)-2-amino-5-(((imino)(((oxido)(oxo)ammonio)amino)methyl)amino)pentanoic acid

>  <TYPE>  (770) 
Backbone

>  <CLASS>  (770) 
alpha

>  <ANALOG>  (770) 
Arg

>  <MOL_WT>  (770) 
219.201

>  <LOGP>  (770) 
-1.5158299999999985

>  <TPSA>  (770) 
154.36999999999998

>  <POPULARITY>  (770) 
12.1

>  <PROTECTED>  (770) 
TRUE

>  <SMILES>  (770) 
N[C@@H](CCCNC(=N)N[N+](=O)[O-])C(=O)O

>  <INCHIKEY>  (770) 
MRAUNPAHJZDYCK-BYPYZUCNSA-N

$$$$
NMe-dW
     RDKit          2D

 16 17  0  0  0  0  0  0  0  0999 V2000
   -2.4834   -1.3664    0.0000 N   0  0  0  0  0  0  0  0  0  0  0  0
   -3.8593   -1.9639    0.0000 C   0  0  0  0  0  0  0  0  0  0  0  0
   -2.3129    0.1239    0.0000 C   0  0  0  0  0  0  0  0  0  0  0  0
   -0.9371    0.7214    0.0000 C   0  0  0  0  0  0  0  0  0  0  0  0
    0.2683   -0.1714    0.0000 C   0  0  0  0  0  0  0  0  0  0  0  0
    0.2545   -1.6713    0.0000 C   0  0  0  0  0  0  0  0  0  0  0  0
    1.6768   -2.1479    0.0000 N   0  0  0  0  0  0  0  0  0  0  0  0
    2.5696   -0.9425    0.0000 C   0  0  0  0  0  0  0  0  0  0  0  0
    4.0627   -0.7995    0.0000 C   0  0  0  0  0  0  0  0  0  0  0  0
    4.6854    0.5652    0.0000 C   0  0  0  0  0  0  0  0  0  0  0  0
    3.8149    1.7868    0.0000 C   0  0  0  0  0  0  0  0  0  0  0  0
    2.3217    1.6437    0.0000 C   0  0  0  0  0  0  0  0  0  0  0  0
    1.6991    0.2790    0.0000 C   0  0  0  0  0  0  0  0  0  0  0  0
   -3.5183    1.0167    0.0000 C   0  0  0  0  0  0  0  0  0  0  0  0
   -3.3478    2.5070    0.0000 O   0  0  0  0  0  0  0  0  0  0  0  0
   -4.8942    0.4192    0.0000 O   0  0  0  0  0  0  0  0  0  0  0  0
  1  2  1  0
  1  3  1  0
  3  4  1  1
  4  5  1  0
  5  6  2  0
  6  7  1  0
  7  8  1  0
  8  9  2  0
  9 10  1  0
 10 11  2  0
 11 12  1  0
 12 13  2  0
  3 14  1  0
 14 15  2  0
 14 16  1  0
 13  5  1  0
 13  8  1  0
M  END
>  <rName>  (771) 
NMe-dW

>  <PQ_SYMBOL>  (771) 
NMe-dW

>  <FULL_NAME>  (771) 
N-methyl-D-Tryptophan

>  <IUPAC_CONDENSED>  (771) 
Me-D-Trp

>  <IUPAC>  (771) 
(2R)-3-(1H-indol-3-yl)-2-(methylamino)propanoic acid

>  <TYPE>  (771) 
Backbone

>  <CLASS>  (771) 
alpha

>  <ANALOG>  (771) 
Trp

>  <MOL_WT>  (771) 
218.256

>  <LOGP>  (771) 
1.383

>  <TPSA>  (771) 
65.12

>  <POPULARITY>  (771) 
18.5

>  <PROTECTED>  (771) 
TRUE

>  <SMILES>  (771) 
N(C)[C@H](Cc1(c[nH]c2(ccccc12)))C(=O)O

>  <INCHIKEY>  (771) 
CZCIKBSVHDNIDH-LLVKDONJSA-N

$$$$
NMe-K
     RDKit          2D

 11 10  0  0  0  0  0  0  0  0999 V2000
   -2.5061    1.4639    0.0000 N   0  0  0  0  0  0  0  0  0  0  0  0
   -3.9125    0.9425    0.0000 C   0  0  0  0  0  0  0  0  0  0  0  0
   -1.3513    0.5066    0.0000 C   0  0  0  0  0  0  0  0  0  0  0  0
    0.0552    1.0280    0.0000 C   0  0  0  0  0  0  0  0  0  0  0  0
    1.2100    0.0707    0.0000 C   0  0  0  0  0  0  0  0  0  0  0  0
    2.6164    0.5921    0.0000 C   0  0  0  0  0  0  0  0  0  0  0  0
    3.7712   -0.3652    0.0000 C   0  0  0  0  0  0  0  0  0  0  0  0
    5.1777    0.1562    0.0000 N   0  0  0  0  0  0  0  0  0  0  0  0
   -1.6030   -0.9721    0.0000 C   0  0  0  0  0  0  0  0  0  0  0  0
   -3.0094   -1.4935    0.0000 O   0  0  0  0  0  0  0  0  0  0  0  0
   -0.4482   -1.9294    0.0000 O   0  0  0  0  0  0  0  0  0  0  0  0
  1  2  1  0
  1  3  1  0
  3  4  1  1
  4  5  1  0
  5  6  1  0
  6  7  1  0
  7  8  1  0
  3  9  1  0
  9 10  2  0
  9 11  1  0
M  END
>  <rName>  (772) 
NMe-K

>  <PQ_SYMBOL>  (772) 
NMe-K

>  <FULL_NAME>  (772) 
N(2)-methyl-L-Lysine

>  <IUPAC_CONDENSED>  (772) 
Me-Lys

>  <IUPAC>  (772) 
(2S)-6-amino-2-(methylamino)hexanoic acid

>  <TYPE>  (772) 
Backbone

>  <CLASS>  (772) 
alpha

>  <ANALOG>  (772) 
Lys

>  <MOL_WT>  (772) 
160.217

>  <LOGP>  (772) 
-0.21200000000000002

>  <TPSA>  (772) 
75.35

>  <POPULARITY>  (772) 
25.7

>  <PROTECTED>  (772) 
TRUE

>  <SMILES>  (772) 
N(C)[C@@H](CCCCN)C(=O)O

>  <INCHIKEY>  (772) 
OLYPWXRMOFUVGH-LURJTMIESA-N

$$$$
NMe-dA
     RDKit          2D

  7  6  0  0  0  0  0  0  0  0999 V2000
    1.5000   -0.7423    0.0000 N   0  0  0  0  0  0  0  0  0  0  0  0
    2.2500    0.5567    0.0000 C   0  0  0  0  0  0  0  0  0  0  0  0
    0.0000   -0.7423    0.0000 C   0  0  0  0  0  0  0  0  0  0  0  0
   -0.7500   -2.0413    0.0000 C   0  0  0  0  0  0  0  0  0  0  0  0
   -0.7500    0.5567    0.0000 C   0  0  0  0  0  0  0  0  0  0  0  0
   -0.0000    1.8558    0.0000 O   0  0  0  0  0  0  0  0  0  0  0  0
   -2.2500    0.5567    0.0000 O   0  0  0  0  0  0  0  0  0  0  0  0
  1  2  1  0
  1  3  1  0
  3  4  1  6
  3  5  1  0
  5  6  2  0
  5  7  1  0
M  END
>  <rName>  (773) 
NMe-dA

>  <PQ_SYMBOL>  (773) 
NMe-dA

>  <FULL_NAME>  (773) 
N-Methyl-D-Alanine

>  <IUPAC_CONDENSED>  (773) 
Me-D-Ala

>  <IUPAC>  (773) 
(2R)-2-(methylamino)propanoic acid

>  <TYPE>  (773) 
Backbone

>  <CLASS>  (773) 
alpha

>  <ANALOG>  (773) 
Ala

>  <MOL_WT>  (773) 
103.12099999999998

>  <LOGP>  (773) 
-0.3211000000000002

>  <TPSA>  (773) 
49.33

>  <POPULARITY>  (773) 
33.4

>  <PROTECTED>  (773) 
TRUE

>  <SMILES>  (773) 
N(C)[C@H](C)C(=O)O

>  <INCHIKEY>  (773) 
GDFAOVXKHJXLEI-GSVOUGTGSA-N

$$$$
NMe-dN
     RDKit          2D

 10  9  0  0  0  0  0  0  0  0999 V2000
   -1.8138    1.4604    0.0000 N   0  0  0  0  0  0  0  0  0  0  0  0
   -3.1802    0.8418    0.0000 C   0  0  0  0  0  0  0  0  0  0  0  0
   -0.5948    0.5863    0.0000 C   0  0  0  0  0  0  0  0  0  0  0  0
    0.7717    1.2050    0.0000 C   0  0  0  0  0  0  0  0  0  0  0  0
    1.9907    0.3309    0.0000 C   0  0  0  0  0  0  0  0  0  0  0  0
    1.8433   -1.1619    0.0000 O   0  0  0  0  0  0  0  0  0  0  0  0
    3.3572    0.9495    0.0000 N   0  0  0  0  0  0  0  0  0  0  0  0
   -0.7422   -0.9064    0.0000 C   0  0  0  0  0  0  0  0  0  0  0  0
   -2.1087   -1.5251    0.0000 O   0  0  0  0  0  0  0  0  0  0  0  0
    0.4768   -1.7805    0.0000 O   0  0  0  0  0  0  0  0  0  0  0  0
  1  2  1  0
  1  3  1  0
  3  4  1  6
  4  5  1  0
  5  6  2  0
  5  7  1  0
  3  8  1  0
  8  9  2  0
  8 10  1  0
M  END
>  <rName>  (774) 
NMe-dN

>  <PQ_SYMBOL>  (774) 
NMe-dN

>  <FULL_NAME>  (774) 
N-Methyl-D-Asparagine

>  <IUPAC_CONDENSED>  (774) 
Me-D-Asn

>  <IUPAC>  (774) 
(2R)-3-carbamoyl-2-(methylamino)propanoic acid

>  <TYPE>  (774) 
Backbone

>  <CLASS>  (774) 
alpha

>  <ANALOG>  (774) 
Asn

>  <MOL_WT>  (774) 
146.14600000000002

>  <LOGP>  (774) 
-1.4655999999999993

>  <TPSA>  (774) 
92.42

>  <POPULARITY>  (774) 
10.5

>  <PROTECTED>  (774) 
TRUE

>  <SMILES>  (774) 
N(C)[C@H](CC(=O)N)C(=O)O

>  <INCHIKEY>  (774) 
LNSMPSPTFDIWRQ-GSVOUGTGSA-N

$$$$
NMe-dL
     RDKit          2D

 10  9  0  0  0  0  0  0  0  0999 V2000
   -1.8138    1.4604    0.0000 N   0  0  0  0  0  0  0  0  0  0  0  0
   -3.1802    0.8418    0.0000 C   0  0  0  0  0  0  0  0  0  0  0  0
   -0.5948    0.5863    0.0000 C   0  0  0  0  0  0  0  0  0  0  0  0
    0.7717    1.2050    0.0000 C   0  0  0  0  0  0  0  0  0  0  0  0
    1.9907    0.3309    0.0000 C   0  0  0  0  0  0  0  0  0  0  0  0
    3.3572    0.9495    0.0000 C   0  0  0  0  0  0  0  0  0  0  0  0
    1.8433   -1.1619    0.0000 C   0  0  0  0  0  0  0  0  0  0  0  0
   -0.7422   -0.9064    0.0000 C   0  0  0  0  0  0  0  0  0  0  0  0
   -2.1087   -1.5251    0.0000 O   0  0  0  0  0  0  0  0  0  0  0  0
    0.4768   -1.7805    0.0000 O   0  0  0  0  0  0  0  0  0  0  0  0
  1  2  1  0
  1  3  1  0
  3  4  1  6
  4  5  1  0
  5  6  1  0
  5  7  1  0
  3  8  1  0
  8  9  2  0
  8 10  1  0
M  END
>  <rName>  (775) 
NMe-dL

>  <PQ_SYMBOL>  (775) 
NMe-dL

>  <FULL_NAME>  (775) 
N-Methyl-D-Leucine

>  <IUPAC_CONDENSED>  (775) 
Me-D-Leu

>  <IUPAC>  (775) 
(2R)-4-methyl-2-(methylamino)pentanoic acid

>  <TYPE>  (775) 
Backbone

>  <CLASS>  (775) 
alpha

>  <ANALOG>  (775) 
Leu

>  <MOL_WT>  (775) 
145.202

>  <LOGP>  (775) 
0.7051000000000001

>  <TPSA>  (775) 
49.33

>  <POPULARITY>  (775) 
44.3

>  <PROTECTED>  (775) 
TRUE

>  <SMILES>  (775) 
N(C)[C@H](CC(C)C)C(=O)O

>  <INCHIKEY>  (775) 
XJODGRWDFZVTKW-ZCFIWIBFSA-N

$$$$
NMe-dS
     RDKit          2D

  8  7  0  0  0  0  0  0  0  0999 V2000
   -1.2990    1.3125    0.0000 N   0  0  0  0  0  0  0  0  0  0  0  0
   -2.5981    0.5625    0.0000 C   0  0  0  0  0  0  0  0  0  0  0  0
    0.0000    0.5625    0.0000 C   0  0  0  0  0  0  0  0  0  0  0  0
    1.2990    1.3125    0.0000 C   0  0  0  0  0  0  0  0  0  0  0  0
    2.5981    0.5625    0.0000 O   0  0  0  0  0  0  0  0  0  0  0  0
    0.0000   -0.9375    0.0000 C   0  0  0  0  0  0  0  0  0  0  0  0
   -1.2990   -1.6875    0.0000 O   0  0  0  0  0  0  0  0  0  0  0  0
    1.2990   -1.6875    0.0000 O   0  0  0  0  0  0  0  0  0  0  0  0
  1  2  1  0
  1  3  1  0
  3  4  1  6
  4  5  1  0
  3  6  1  0
  6  7  2  0
  6  8  1  0
M  END
>  <rName>  (776) 
NMe-dS

>  <PQ_SYMBOL>  (776) 
NMe-dS

>  <FULL_NAME>  (776) 
N-Methyl-D-Serine

>  <IUPAC_CONDENSED>  (776) 
Me-D-Ser

>  <IUPAC>  (776) 
(2R)-3-hydroxy-2-(methylamino)propanoic acid

>  <TYPE>  (776) 
Backbone

>  <CLASS>  (776) 
alpha

>  <ANALOG>  (776) 
Ser

>  <MOL_WT>  (776) 
119.11999999999998

>  <LOGP>  (776) 
-1.3487

>  <TPSA>  (776) 
69.56

>  <POPULARITY>  (776) 
22

>  <PROTECTED>  (776) 
TRUE

>  <SMILES>  (776) 
N(C)[C@H](CO)C(=O)O

>  <INCHIKEY>  (776) 
PSFABYLDRXJYID-GSVOUGTGSA-N

$$$$
NMe-dF
     RDKit          2D

 13 13  0  0  0  0  0  0  0  0999 V2000
   -1.1846    1.3730    0.0000 N   0  0  0  0  0  0  0  0  0  0  0  0
   -2.3388    2.3311    0.0000 C   0  0  0  0  0  0  0  0  0  0  0  0
   -1.4373   -0.1056    0.0000 C   0  0  0  0  0  0  0  0  0  0  0  0
   -0.2831   -1.0637    0.0000 C   0  0  0  0  0  0  0  0  0  0  0  0
    1.1237   -0.5432    0.0000 C   0  0  0  0  0  0  0  0  0  0  0  0
    1.3763    0.9354    0.0000 C   0  0  0  0  0  0  0  0  0  0  0  0
    2.7831    1.4559    0.0000 C   0  0  0  0  0  0  0  0  0  0  0  0
    3.9373    0.4978    0.0000 C   0  0  0  0  0  0  0  0  0  0  0  0
    3.6846   -0.9808    0.0000 C   0  0  0  0  0  0  0  0  0  0  0  0
    2.2778   -1.5013    0.0000 C   0  0  0  0  0  0  0  0  0  0  0  0
   -2.8441   -0.6260    0.0000 C   0  0  0  0  0  0  0  0  0  0  0  0
   -3.0967   -2.1046    0.0000 O   0  0  0  0  0  0  0  0  0  0  0  0
   -3.9982    0.3321    0.0000 O   0  0  0  0  0  0  0  0  0  0  0  0
  1  2  1  0
  1  3  1  0
  3  4  1  6
  4  5  1  0
  5  6  2  0
  6  7  1  0
  7  8  2  0
  8  9  1  0
  9 10  2  0
  3 11  1  0
 11 12  2  0
 11 13  1  0
 10  5  1  0
M  END
>  <rName>  (777) 
NMe-dF

>  <PQ_SYMBOL>  (777) 
NMe-dF

>  <FULL_NAME>  (777) 
N-methyl-D-Phenylalanine

>  <IUPAC_CONDENSED>  (777) 
Me-D-Phe

>  <IUPAC>  (777) 
(2R)-2-(methylamino)-3-phenylpropanoic acid

>  <TYPE>  (777) 
Backbone

>  <CLASS>  (777) 
alpha

>  <ANALOG>  (777) 
Phe

>  <MOL_WT>  (777) 
179.21899999999997

>  <LOGP>  (777) 
0.9017

>  <TPSA>  (777) 
49.33

>  <POPULARITY>  (777) 
39.7

>  <PROTECTED>  (777) 
TRUE

>  <SMILES>  (777) 
N(C)[C@H](Cc1(ccccc1))C(=O)O

>  <INCHIKEY>  (777) 
SCIFESDRCALIIM-SECBINFHSA-N

$$$$
NMe-V
     RDKit          2D

  9  8  0  0  0  0  0  0  0  0999 V2000
   -0.7500    1.5877    0.0000 N   0  0  0  0  0  0  0  0  0  0  0  0
   -2.2500    1.5877    0.0000 C   0  0  0  0  0  0  0  0  0  0  0  0
    0.0000    0.2887    0.0000 C   0  0  0  0  0  0  0  0  0  0  0  0
    1.5000    0.2887    0.0000 C   0  0  0  0  0  0  0  0  0  0  0  0
    2.2500   -1.0104    0.0000 C   0  0  0  0  0  0  0  0  0  0  0  0
    2.2500    1.5877    0.0000 C   0  0  0  0  0  0  0  0  0  0  0  0
   -0.7500   -1.0104    0.0000 C   0  0  0  0  0  0  0  0  0  0  0  0
   -2.2500   -1.0104    0.0000 O   0  0  0  0  0  0  0  0  0  0  0  0
   -0.0000   -2.3094    0.0000 O   0  0  0  0  0  0  0  0  0  0  0  0
  1  2  1  0
  3  1  1  1
  3  4  1  0
  4  5  1  0
  4  6  1  0
  3  7  1  0
  7  8  2  0
  7  9  1  0
M  END
>  <rName>  (778) 
NMe-V

>  <PQ_SYMBOL>  (778) 
NMe-V

>  <FULL_NAME>  (778) 
N-methyl-L-Valine

>  <IUPAC_CONDENSED>  (778) 
Me-Val

>  <IUPAC>  (778) 
(2S)-3-methyl-2-(methylamino)butanoic acid

>  <TYPE>  (778) 
Backbone

>  <CLASS>  (778) 
alpha

>  <ANALOG>  (778) 
Val

>  <MOL_WT>  (778) 
131.175

>  <LOGP>  (778) 
0.31499999999999967

>  <TPSA>  (778) 
49.33

>  <POPULARITY>  (778) 
54.9

>  <PROTECTED>  (778) 
TRUE

>  <SMILES>  (778) 
N(C)[C@@H](C(C)C)C(=O)O

>  <INCHIKEY>  (778) 
AKCRVYNORCOYQT-YFKPBYRVSA-N

$$$$
NMe-dV
     RDKit          2D

  9  8  0  0  0  0  0  0  0  0999 V2000
   -0.7500    1.5877    0.0000 N   0  0  0  0  0  0  0  0  0  0  0  0
   -2.2500    1.5877    0.0000 C   0  0  0  0  0  0  0  0  0  0  0  0
    0.0000    0.2887    0.0000 C   0  0  0  0  0  0  0  0  0  0  0  0
    1.5000    0.2887    0.0000 C   0  0  0  0  0  0  0  0  0  0  0  0
    2.2500   -1.0104    0.0000 C   0  0  0  0  0  0  0  0  0  0  0  0
    2.2500    1.5877    0.0000 C   0  0  0  0  0  0  0  0  0  0  0  0
   -0.7500   -1.0104    0.0000 C   0  0  0  0  0  0  0  0  0  0  0  0
   -2.2500   -1.0104    0.0000 O   0  0  0  0  0  0  0  0  0  0  0  0
   -0.0000   -2.3094    0.0000 O   0  0  0  0  0  0  0  0  0  0  0  0
  1  2  1  0
  3  1  1  6
  3  4  1  0
  4  5  1  0
  4  6  1  0
  3  7  1  0
  7  8  2  0
  7  9  1  0
M  END
>  <rName>  (779) 
NMe-dV

>  <PQ_SYMBOL>  (779) 
NMe-dV

>  <FULL_NAME>  (779) 
N-methyl-D-Valine

>  <IUPAC_CONDENSED>  (779) 
Me-D-Val

>  <IUPAC>  (779) 
(2R)-3-methyl-2-(methylamino)butanoic acid

>  <TYPE>  (779) 
Backbone

>  <CLASS>  (779) 
alpha

>  <ANALOG>  (779) 
Val

>  <MOL_WT>  (779) 
131.175

>  <LOGP>  (779) 
0.31499999999999967

>  <TPSA>  (779) 
49.33

>  <POPULARITY>  (779) 
30.5

>  <PROTECTED>  (779) 
TRUE

>  <SMILES>  (779) 
N(C)[C@H](C(C)C)C(=O)O

>  <INCHIKEY>  (779) 
AKCRVYNORCOYQT-RXMQYKEDSA-N

$$$$
NMe-T
     RDKit          2D

  9  8  0  0  0  0  0  0  0  0999 V2000
   -0.7500    1.5877    0.0000 N   0  0  0  0  0  0  0  0  0  0  0  0
   -2.2500    1.5877    0.0000 C   0  0  0  0  0  0  0  0  0  0  0  0
    0.0000    0.2887    0.0000 C   0  0  0  0  0  0  0  0  0  0  0  0
    1.5000    0.2887    0.0000 C   0  0  0  0  0  0  0  0  0  0  0  0
    2.2500    1.5877    0.0000 O   0  0  0  0  0  0  0  0  0  0  0  0
    2.2500   -1.0104    0.0000 C   0  0  0  0  0  0  0  0  0  0  0  0
   -0.7500   -1.0104    0.0000 C   0  0  0  0  0  0  0  0  0  0  0  0
   -2.2500   -1.0104    0.0000 O   0  0  0  0  0  0  0  0  0  0  0  0
   -0.0000   -2.3094    0.0000 O   0  0  0  0  0  0  0  0  0  0  0  0
  1  2  1  0
  3  1  1  1
  3  4  1  0
  4  5  1  0
  4  6  1  6
  3  7  1  0
  7  8  2  0
  7  9  1  0
M  END
>  <rName>  (780) 
NMe-T

>  <PQ_SYMBOL>  (780) 
NMe-T

>  <FULL_NAME>  (780) 
N-Methyl-L-Threonine

>  <IUPAC_CONDENSED>  (780) 
Me-Thr

>  <IUPAC>  (780) 
(2S,3R)-3-hydroxy-2-(methylamino)butanoic acid

>  <TYPE>  (780) 
Backbone

>  <CLASS>  (780) 
alpha

>  <ANALOG>  (780) 
Thr

>  <MOL_WT>  (780) 
133.147

>  <LOGP>  (780) 
-0.9602000000000004

>  <TPSA>  (780) 
69.56

>  <POPULARITY>  (780) 
36.7

>  <PROTECTED>  (780) 
TRUE

>  <SMILES>  (780) 
N(C)[C@@H]([C@H](O)C)C(=O)O

>  <INCHIKEY>  (780) 
CCAIIPMIAFGKSI-DMTCNVIQSA-N

$$$$
NMe-dT
     RDKit          2D

  9  8  0  0  0  0  0  0  0  0999 V2000
   -0.7500    1.5877    0.0000 N   0  0  0  0  0  0  0  0  0  0  0  0
   -2.2500    1.5877    0.0000 C   0  0  0  0  0  0  0  0  0  0  0  0
    0.0000    0.2887    0.0000 C   0  0  0  0  0  0  0  0  0  0  0  0
    1.5000    0.2887    0.0000 C   0  0  0  0  0  0  0  0  0  0  0  0
    2.2500    1.5877    0.0000 O   0  0  0  0  0  0  0  0  0  0  0  0
    2.2500   -1.0104    0.0000 C   0  0  0  0  0  0  0  0  0  0  0  0
   -0.7500   -1.0104    0.0000 C   0  0  0  0  0  0  0  0  0  0  0  0
   -2.2500   -1.0104    0.0000 O   0  0  0  0  0  0  0  0  0  0  0  0
   -0.0000   -2.3094    0.0000 O   0  0  0  0  0  0  0  0  0  0  0  0
  1  2  1  0
  3  1  1  6
  3  4  1  0
  4  5  1  0
  4  6  1  1
  3  7  1  0
  7  8  2  0
  7  9  1  0
M  END
>  <rName>  (781) 
NMe-dT

>  <PQ_SYMBOL>  (781) 
NMe-dT

>  <FULL_NAME>  (781) 
N-Methyl-D-Threonine

>  <IUPAC_CONDENSED>  (781) 
Me-D-Thr

>  <IUPAC>  (781) 
(2R,3S)-3-hydroxy-2-(methylamino)butanoic acid

>  <TYPE>  (781) 
Backbone

>  <CLASS>  (781) 
alpha

>  <ANALOG>  (781) 
Thr

>  <MOL_WT>  (781) 
133.147

>  <LOGP>  (781) 
-0.9602000000000004

>  <TPSA>  (781) 
69.56

>  <POPULARITY>  (781) 
12.2

>  <PROTECTED>  (781) 
TRUE

>  <SMILES>  (781) 
N(C)[C@H]([C@@H](O)C)C(=O)O

>  <INCHIKEY>  (781) 
CCAIIPMIAFGKSI-IUYQGCFVSA-N

$$$$
NMe-dR
     RDKit          2D

 13 12  0  0  0  0  0  0  0  0999 V2000
   -3.3767    1.4803    0.0000 N   0  0  0  0  0  0  0  0  0  0  0  0
   -4.7951    0.9924    0.0000 C   0  0  0  0  0  0  0  0  0  0  0  0
   -2.2449    0.4958    0.0000 C   0  0  0  0  0  0  0  0  0  0  0  0
   -0.8265    0.9838    0.0000 C   0  0  0  0  0  0  0  0  0  0  0  0
    0.3053   -0.0007    0.0000 C   0  0  0  0  0  0  0  0  0  0  0  0
    1.7237    0.4873    0.0000 C   0  0  0  0  0  0  0  0  0  0  0  0
    2.8555   -0.4972    0.0000 N   0  0  0  0  0  0  0  0  0  0  0  0
    4.2739   -0.0092    0.0000 C   0  0  0  0  0  0  0  0  0  0  0  0
    4.5606    1.4631    0.0000 N   0  0  0  0  0  0  0  0  0  0  0  0
    5.4057   -0.9937    0.0000 N   0  0  0  0  0  0  0  0  0  0  0  0
   -2.5316   -0.9765    0.0000 C   0  0  0  0  0  0  0  0  0  0  0  0
   -3.9500   -1.4644    0.0000 O   0  0  0  0  0  0  0  0  0  0  0  0
   -1.3998   -1.9609    0.0000 O   0  0  0  0  0  0  0  0  0  0  0  0
  1  2  1  0
  1  3  1  0
  3  4  1  6
  4  5  1  0
  5  6  1  0
  6  7  1  0
  7  8  1  0
  8  9  2  0
  8 10  1  0
  3 11  1  0
 11 12  2  0
 11 13  1  0
M  END
>  <rName>  (782) 
NMe-dR

>  <PQ_SYMBOL>  (782) 
NMe-dR

>  <FULL_NAME>  (782) 
N2-Methyl-D-Arginine

>  <IUPAC_CONDENSED>  (782) 
Me-D-Arg

>  <IUPAC>  (782) 
(2R)-5-(((amino)(imino)methyl)amino)-2-(methylamino)pentanoic acid

>  <TYPE>  (782) 
Backbone

>  <CLASS>  (782) 
alpha

>  <ANALOG>  (782) 
Arg

>  <MOL_WT>  (782) 
188.231

>  <LOGP>  (782) 
-1.077729999999998

>  <TPSA>  (782) 
111.23

>  <POPULARITY>  (782) 
17.4

>  <PROTECTED>  (782) 
TRUE

>  <SMILES>  (782) 
N(C)[C@H](CCCNC(=N)N)C(=O)O

>  <INCHIKEY>  (782) 
NTWVQPHTOUKMDI-RXMQYKEDSA-N

$$$$
NMe-Q
     RDKit          2D

 11 10  0  0  0  0  0  0  0  0999 V2000
   -2.1418    1.5326    0.0000 N   0  0  0  0  0  0  0  0  0  0  0  0
   -3.5967    1.1676    0.0000 C   0  0  0  0  0  0  0  0  0  0  0  0
   -1.0983    0.4550    0.0000 C   0  0  0  0  0  0  0  0  0  0  0  0
    0.3567    0.8200    0.0000 C   0  0  0  0  0  0  0  0  0  0  0  0
    1.4002   -0.2575    0.0000 C   0  0  0  0  0  0  0  0  0  0  0  0
    2.8551    0.1074    0.0000 C   0  0  0  0  0  0  0  0  0  0  0  0
    3.2665    1.5499    0.0000 O   0  0  0  0  0  0  0  0  0  0  0  0
    3.8986   -0.9701    0.0000 N   0  0  0  0  0  0  0  0  0  0  0  0
   -1.5097   -0.9874    0.0000 C   0  0  0  0  0  0  0  0  0  0  0  0
   -2.9646   -1.3524    0.0000 O   0  0  0  0  0  0  0  0  0  0  0  0
   -0.4661   -2.0650    0.0000 O   0  0  0  0  0  0  0  0  0  0  0  0
  1  2  1  0
  1  3  1  0
  3  4  1  1
  4  5  1  0
  5  6  1  0
  6  7  2  0
  6  8  1  0
  3  9  1  0
  9 10  2  0
  9 11  1  0
M  END
>  <rName>  (783) 
NMe-Q

>  <PQ_SYMBOL>  (783) 
NMe-Q

>  <FULL_NAME>  (783) 
N2-Methyl-L-Glutamine

>  <IUPAC_CONDENSED>  (783) 
Me-Gln

>  <IUPAC>  (783) 
(2S)-4-carbamoyl-2-(methylamino)butanoic acid

>  <TYPE>  (783) 
Backbone

>  <CLASS>  (783) 
alpha

>  <ANALOG>  (783) 
Gln

>  <MOL_WT>  (783) 
160.173

>  <LOGP>  (783) 
-1.0754999999999995

>  <TPSA>  (783) 
92.42

>  <POPULARITY>  (783) 
20.6

>  <PROTECTED>  (783) 
TRUE

>  <SMILES>  (783) 
N(C)[C@@H](CCC(=O)N)C(=O)O

>  <INCHIKEY>  (783) 
KSZFSNZOGAXEGH-BYPYZUCNSA-N

$$$$
NMe-dQ
     RDKit          2D

 11 10  0  0  0  0  0  0  0  0999 V2000
   -2.1418    1.5326    0.0000 N   0  0  0  0  0  0  0  0  0  0  0  0
   -3.5967    1.1676    0.0000 C   0  0  0  0  0  0  0  0  0  0  0  0
   -1.0983    0.4550    0.0000 C   0  0  0  0  0  0  0  0  0  0  0  0
    0.3567    0.8200    0.0000 C   0  0  0  0  0  0  0  0  0  0  0  0
    1.4002   -0.2575    0.0000 C   0  0  0  0  0  0  0  0  0  0  0  0
    2.8551    0.1074    0.0000 C   0  0  0  0  0  0  0  0  0  0  0  0
    3.2665    1.5499    0.0000 O   0  0  0  0  0  0  0  0  0  0  0  0
    3.8986   -0.9701    0.0000 N   0  0  0  0  0  0  0  0  0  0  0  0
   -1.5097   -0.9874    0.0000 C   0  0  0  0  0  0  0  0  0  0  0  0
   -2.9646   -1.3524    0.0000 O   0  0  0  0  0  0  0  0  0  0  0  0
   -0.4661   -2.0650    0.0000 O   0  0  0  0  0  0  0  0  0  0  0  0
  1  2  1  0
  1  3  1  0
  3  4  1  6
  4  5  1  0
  5  6  1  0
  6  7  2  0
  6  8  1  0
  3  9  1  0
  9 10  2  0
  9 11  1  0
M  END
>  <rName>  (784) 
NMe-dQ

>  <PQ_SYMBOL>  (784) 
NMe-dQ

>  <FULL_NAME>  (784) 
N2-Methyl-D-Glutamine

>  <IUPAC_CONDENSED>  (784) 
Me-D-Gln

>  <IUPAC>  (784) 
(2R)-4-carbamoyl-2-(methylamino)butanoic acid

>  <TYPE>  (784) 
Backbone

>  <CLASS>  (784) 
alpha

>  <ANALOG>  (784) 
Gln

>  <MOL_WT>  (784) 
160.173

>  <LOGP>  (784) 
-1.0754999999999995

>  <TPSA>  (784) 
92.42

>  <POPULARITY>  (784) 
18.2

>  <PROTECTED>  (784) 
TRUE

>  <SMILES>  (784) 
N(C)[C@H](CCC(=O)N)C(=O)O

>  <INCHIKEY>  (784) 
KSZFSNZOGAXEGH-SCSAIBSYSA-N

$$$$
NMe-H
     RDKit          2D

 12 12  0  0  0  0  0  0  0  0999 V2000
   -0.9097    1.3884    0.0000 N   0  0  0  0  0  0  0  0  0  0  0  0
   -2.0799    2.3268    0.0000 C   0  0  0  0  0  0  0  0  0  0  0  0
   -1.1374   -0.0943    0.0000 C   0  0  0  0  0  0  0  0  0  0  0  0
    0.0327   -1.0328    0.0000 C   0  0  0  0  0  0  0  0  0  0  0  0
    1.4305   -0.4886    0.0000 C   0  0  0  0  0  0  0  0  0  0  0  0
    2.6924   -1.2997    0.0000 C   0  0  0  0  0  0  0  0  0  0  0  0
    3.8536   -0.3502    0.0000 N   0  0  0  0  0  0  0  0  0  0  0  0
    3.3095    1.0476    0.0000 C   0  0  0  0  0  0  0  0  0  0  0  0
    1.8120    0.9621    0.0000 N   0  0  0  0  0  0  0  0  0  0  0  0
   -2.5353   -0.6384    0.0000 C   0  0  0  0  0  0  0  0  0  0  0  0
   -2.7630   -2.1210    0.0000 O   0  0  0  0  0  0  0  0  0  0  0  0
   -3.7054    0.3001    0.0000 O   0  0  0  0  0  0  0  0  0  0  0  0
  1  2  1  0
  1  3  1  0
  3  4  1  1
  4  5  1  0
  5  6  2  0
  6  7  1  0
  7  8  2  0
  8  9  1  0
  3 10  1  0
 10 11  2  0
 10 12  1  0
  9  5  1  0
M  END
>  <rName>  (785) 
NMe-H

>  <PQ_SYMBOL>  (785) 
NMe-H

>  <FULL_NAME>  (785) 
N-Methyl-L-Histidine

>  <IUPAC_CONDENSED>  (785) 
Me-His

>  <IUPAC>  (785) 
(2S)-3-(1H-imidazol-5-yl)-2-(methylamino)propanoic acid

>  <TYPE>  (785) 
Backbone

>  <CLASS>  (785) 
alpha

>  <ANALOG>  (785) 
His

>  <MOL_WT>  (785) 
169.184

>  <LOGP>  (785) 
-0.3752000000000005

>  <TPSA>  (785) 
78.01

>  <POPULARITY>  (785) 
24.3

>  <PROTECTED>  (785) 
TRUE

>  <SMILES>  (785) 
N(C)[C@@H](Cc1(cnc[nH]1))C(=O)O

>  <INCHIKEY>  (785) 
CYZKJBZEIFWZSR-LURJTMIESA-N

$$$$
NMe-dH
     RDKit          2D

 12 12  0  0  0  0  0  0  0  0999 V2000
   -0.9097    1.3884    0.0000 N   0  0  0  0  0  0  0  0  0  0  0  0
   -2.0799    2.3268    0.0000 C   0  0  0  0  0  0  0  0  0  0  0  0
   -1.1374   -0.0943    0.0000 C   0  0  0  0  0  0  0  0  0  0  0  0
    0.0327   -1.0328    0.0000 C   0  0  0  0  0  0  0  0  0  0  0  0
    1.4305   -0.4886    0.0000 C   0  0  0  0  0  0  0  0  0  0  0  0
    2.6924   -1.2997    0.0000 C   0  0  0  0  0  0  0  0  0  0  0  0
    3.8536   -0.3502    0.0000 N   0  0  0  0  0  0  0  0  0  0  0  0
    3.3095    1.0476    0.0000 C   0  0  0  0  0  0  0  0  0  0  0  0
    1.8120    0.9621    0.0000 N   0  0  0  0  0  0  0  0  0  0  0  0
   -2.5353   -0.6384    0.0000 C   0  0  0  0  0  0  0  0  0  0  0  0
   -2.7630   -2.1210    0.0000 O   0  0  0  0  0  0  0  0  0  0  0  0
   -3.7054    0.3001    0.0000 O   0  0  0  0  0  0  0  0  0  0  0  0
  1  2  1  0
  1  3  1  0
  3  4  1  6
  4  5  1  0
  5  6  2  0
  6  7  1  0
  7  8  2  0
  8  9  1  0
  3 10  1  0
 10 11  2  0
 10 12  1  0
  9  5  1  0
M  END
>  <rName>  (786) 
NMe-dH

>  <PQ_SYMBOL>  (786) 
NMe-dH

>  <FULL_NAME>  (786) 
N-Methyl-D-Histidine

>  <IUPAC_CONDENSED>  (786) 
Me-D-His

>  <IUPAC>  (786) 
(2R)-3-(1H-imidazol-5-yl)-2-(methylamino)propanoic acid

>  <TYPE>  (786) 
Backbone

>  <CLASS>  (786) 
alpha

>  <ANALOG>  (786) 
His

>  <MOL_WT>  (786) 
169.184

>  <LOGP>  (786) 
-0.3752000000000005

>  <TPSA>  (786) 
78.01

>  <POPULARITY>  (786) 
10.2

>  <PROTECTED>  (786) 
TRUE

>  <SMILES>  (786) 
N(C)[C@H](Cc1(cnc[nH]1))C(=O)O

>  <INCHIKEY>  (786) 
CYZKJBZEIFWZSR-ZCFIWIBFSA-N

$$$$
NMe-dK
     RDKit          2D

 11 10  0  0  0  0  0  0  0  0999 V2000
   -2.5061    1.4639    0.0000 N   0  0  0  0  0  0  0  0  0  0  0  0
   -3.9125    0.9425    0.0000 C   0  0  0  0  0  0  0  0  0  0  0  0
   -1.3513    0.5066    0.0000 C   0  0  0  0  0  0  0  0  0  0  0  0
    0.0552    1.0280    0.0000 C   0  0  0  0  0  0  0  0  0  0  0  0
    1.2100    0.0707    0.0000 C   0  0  0  0  0  0  0  0  0  0  0  0
    2.6164    0.5921    0.0000 C   0  0  0  0  0  0  0  0  0  0  0  0
    3.7712   -0.3652    0.0000 C   0  0  0  0  0  0  0  0  0  0  0  0
    5.1777    0.1562    0.0000 N   0  0  0  0  0  0  0  0  0  0  0  0
   -1.6030   -0.9721    0.0000 C   0  0  0  0  0  0  0  0  0  0  0  0
   -3.0094   -1.4935    0.0000 O   0  0  0  0  0  0  0  0  0  0  0  0
   -0.4482   -1.9294    0.0000 O   0  0  0  0  0  0  0  0  0  0  0  0
  1  2  1  0
  1  3  1  0
  3  4  1  6
  4  5  1  0
  5  6  1  0
  6  7  1  0
  7  8  1  0
  3  9  1  0
  9 10  2  0
  9 11  1  0
M  END
>  <rName>  (787) 
NMe-dK

>  <PQ_SYMBOL>  (787) 
NMe-dK

>  <FULL_NAME>  (787) 
N(2)-Methyl-D-Lysine

>  <IUPAC_CONDENSED>  (787) 
Me-D-Lys

>  <IUPAC>  (787) 
(2R)-6-amino-2-(methylamino)hexanoic acid

>  <TYPE>  (787) 
Backbone

>  <CLASS>  (787) 
alpha

>  <ANALOG>  (787) 
Lys

>  <MOL_WT>  (787) 
160.217

>  <LOGP>  (787) 
-0.21200000000000002

>  <TPSA>  (787) 
75.35

>  <POPULARITY>  (787) 
15.1

>  <PROTECTED>  (787) 
TRUE

>  <SMILES>  (787) 
N(C)[C@H](CCCCN)C(=O)O

>  <INCHIKEY>  (787) 
OLYPWXRMOFUVGH-ZCFIWIBFSA-N

$$$$
NMe-Y
     RDKit          2D

 14 14  0  0  0  0  0  0  0  0999 V2000
   -1.4939    1.3829    0.0000 N   0  0  0  0  0  0  0  0  0  0  0  0
   -2.5947    2.4018    0.0000 C   0  0  0  0  0  0  0  0  0  0  0  0
   -1.8260   -0.0799    0.0000 C   0  0  0  0  0  0  0  0  0  0  0  0
   -0.7252   -1.0989    0.0000 C   0  0  0  0  0  0  0  0  0  0  0  0
    0.7076   -0.6550    0.0000 C   0  0  0  0  0  0  0  0  0  0  0  0
    1.0397    0.8077    0.0000 C   0  0  0  0  0  0  0  0  0  0  0  0
    2.4725    1.2516    0.0000 C   0  0  0  0  0  0  0  0  0  0  0  0
    3.5733    0.2326    0.0000 C   0  0  0  0  0  0  0  0  0  0  0  0
    5.0062    0.6765    0.0000 O   0  0  0  0  0  0  0  0  0  0  0  0
    3.2413   -1.2302    0.0000 C   0  0  0  0  0  0  0  0  0  0  0  0
    1.8084   -1.6740    0.0000 C   0  0  0  0  0  0  0  0  0  0  0  0
   -3.2588   -0.5237    0.0000 C   0  0  0  0  0  0  0  0  0  0  0  0
   -3.5909   -1.9865    0.0000 O   0  0  0  0  0  0  0  0  0  0  0  0
   -4.3596    0.4952    0.0000 O   0  0  0  0  0  0  0  0  0  0  0  0
  1  2  1  0
  1  3  1  0
  3  4  1  1
  4  5  1  0
  5  6  1  0
  6  7  2  0
  7  8  1  0
  8  9  1  0
  8 10  2  0
 10 11  1  0
  3 12  1  0
 12 13  2  0
 12 14  1  0
 11  5  2  0
M  END
>  <rName>  (788) 
NMe-Y

>  <PQ_SYMBOL>  (788) 
NMe-Y

>  <FULL_NAME>  (788) 
N-Methyl-L-Tyrosine

>  <IUPAC_CONDENSED>  (788) 
Me-Tyr

>  <IUPAC>  (788) 
(2S)-3-(4-hydroxyphenyl)-2-(methylamino)propanoic acid

>  <TYPE>  (788) 
Backbone

>  <CLASS>  (788) 
alpha

>  <ANALOG>  (788) 
Tyr

>  <MOL_WT>  (788) 
195.218

>  <LOGP>  (788) 
0.6072999999999997

>  <TPSA>  (788) 
69.56

>  <POPULARITY>  (788) 
38.2

>  <PROTECTED>  (788) 
TRUE

>  <SMILES>  (788) 
N(C)[C@@H](Cc1(ccc(O)cc1))C(=O)O

>  <INCHIKEY>  (788) 
AXDLCFOOGCNDST-VIFPVBQESA-N

$$$$
NMe-dY
     RDKit          2D

 14 14  0  0  0  0  0  0  0  0999 V2000
   -1.4939    1.3829    0.0000 N   0  0  0  0  0  0  0  0  0  0  0  0
   -2.5947    2.4018    0.0000 C   0  0  0  0  0  0  0  0  0  0  0  0
   -1.8260   -0.0799    0.0000 C   0  0  0  0  0  0  0  0  0  0  0  0
   -0.7252   -1.0989    0.0000 C   0  0  0  0  0  0  0  0  0  0  0  0
    0.7076   -0.6550    0.0000 C   0  0  0  0  0  0  0  0  0  0  0  0
    1.0397    0.8077    0.0000 C   0  0  0  0  0  0  0  0  0  0  0  0
    2.4725    1.2516    0.0000 C   0  0  0  0  0  0  0  0  0  0  0  0
    3.5733    0.2326    0.0000 C   0  0  0  0  0  0  0  0  0  0  0  0
    5.0062    0.6765    0.0000 O   0  0  0  0  0  0  0  0  0  0  0  0
    3.2413   -1.2302    0.0000 C   0  0  0  0  0  0  0  0  0  0  0  0
    1.8084   -1.6740    0.0000 C   0  0  0  0  0  0  0  0  0  0  0  0
   -3.2588   -0.5237    0.0000 C   0  0  0  0  0  0  0  0  0  0  0  0
   -3.5909   -1.9865    0.0000 O   0  0  0  0  0  0  0  0  0  0  0  0
   -4.3596    0.4952    0.0000 O   0  0  0  0  0  0  0  0  0  0  0  0
  1  2  1  0
  1  3  1  0
  3  4  1  6
  4  5  1  0
  5  6  1  0
  6  7  2  0
  7  8  1  0
  8  9  1  0
  8 10  2  0
 10 11  1  0
  3 12  1  0
 12 13  2  0
 12 14  1  0
 11  5  2  0
M  END
>  <rName>  (789) 
NMe-dY

>  <PQ_SYMBOL>  (789) 
NMe-dY

>  <FULL_NAME>  (789) 
N-Methyl-D-Tyrosine

>  <IUPAC_CONDENSED>  (789) 
Me-D-Tyr

>  <IUPAC>  (789) 
(2R)-3-(4-hydroxyphenyl)-2-(methylamino)propanoic acid

>  <TYPE>  (789) 
Backbone

>  <CLASS>  (789) 
alpha

>  <ANALOG>  (789) 
Tyr

>  <MOL_WT>  (789) 
195.218

>  <LOGP>  (789) 
0.6072999999999997

>  <TPSA>  (789) 
69.56

>  <POPULARITY>  (789) 
16.9

>  <PROTECTED>  (789) 
TRUE

>  <SMILES>  (789) 
N(C)[C@H](Cc1(ccc(O)cc1))C(=O)O

>  <INCHIKEY>  (789) 
AXDLCFOOGCNDST-SECBINFHSA-N

$$$$
NMe-C
     RDKit          2D

  8  7  0  0  0  0  0  0  0  0999 V2000
   -1.6238    0.7500    0.0000 N   0  0  0  0  0  0  0  0  0  0  0  0
   -2.9228    0.0000    0.0000 C   0  0  0  0  0  0  0  0  0  0  0  0
   -0.3248   -0.0000    0.0000 C   0  0  0  0  0  0  0  0  0  0  0  0
   -0.3248   -1.5000    0.0000 C   0  0  0  0  0  0  0  0  0  0  0  0
    0.9743   -2.2500    0.0000 S   0  0  0  0  0  0  0  0  0  0  0  0
    0.9743    0.7500    0.0000 C   0  0  0  0  0  0  0  0  0  0  0  0
    0.9743    2.2500    0.0000 O   0  0  0  0  0  0  0  0  0  0  0  0
    2.2733   -0.0000    0.0000 O   0  0  0  0  0  0  0  0  0  0  0  0
  1  2  1  0
  1  3  1  0
  3  4  1  6
  4  5  1  0
  3  6  1  0
  6  7  2  0
  6  8  1  0
M  END
>  <rName>  (790) 
NMe-C

>  <PQ_SYMBOL>  (790) 
NMe-C

>  <FULL_NAME>  (790) 
N-Methyl-L-Cysteine

>  <IUPAC_CONDENSED>  (790) 
Me-Cys

>  <IUPAC>  (790) 
(2R)-2-(methylamino)-3-sulfanylpropanoic acid

>  <TYPE>  (790) 
Backbone

>  <CLASS>  (790) 
alpha

>  <ANALOG>  (790) 
Cys

>  <MOL_WT>  (790) 
135.188

>  <LOGP>  (790) 
-0.41120000000000007

>  <TPSA>  (790) 
49.33

>  <POPULARITY>  (790) 
38.4

>  <PROTECTED>  (790) 
TRUE

>  <SMILES>  (790) 
N(C)[C@@H](CS)C(=O)O

>  <INCHIKEY>  (790) 
DVOOXRTYGGLORL-VKHMYHEASA-N

$$$$
NMe-dC
     RDKit          2D

  8  7  0  0  0  0  0  0  0  0999 V2000
   -1.6238    0.7500    0.0000 N   0  0  0  0  0  0  0  0  0  0  0  0
   -2.9228    0.0000    0.0000 C   0  0  0  0  0  0  0  0  0  0  0  0
   -0.3248   -0.0000    0.0000 C   0  0  0  0  0  0  0  0  0  0  0  0
   -0.3248   -1.5000    0.0000 C   0  0  0  0  0  0  0  0  0  0  0  0
    0.9743   -2.2500    0.0000 S   0  0  0  0  0  0  0  0  0  0  0  0
    0.9743    0.7500    0.0000 C   0  0  0  0  0  0  0  0  0  0  0  0
    0.9743    2.2500    0.0000 O   0  0  0  0  0  0  0  0  0  0  0  0
    2.2733   -0.0000    0.0000 O   0  0  0  0  0  0  0  0  0  0  0  0
  1  2  1  0
  1  3  1  0
  3  4  1  1
  4  5  1  0
  3  6  1  0
  6  7  2  0
  6  8  1  0
M  END
>  <rName>  (791) 
NMe-dC

>  <PQ_SYMBOL>  (791) 
NMe-dC

>  <FULL_NAME>  (791) 
N-Methyl-D-Cysteine

>  <IUPAC_CONDENSED>  (791) 
Me-D-Cys

>  <IUPAC>  (791) 
(2S)-2-(methylamino)-3-sulfanylpropanoic acid

>  <TYPE>  (791) 
Backbone

>  <CLASS>  (791) 
alpha

>  <ANALOG>  (791) 
Cys

>  <MOL_WT>  (791) 
135.188

>  <LOGP>  (791) 
-0.41120000000000007

>  <TPSA>  (791) 
49.33

>  <POPULARITY>  (791) 
19.5

>  <PROTECTED>  (791) 
TRUE

>  <SMILES>  (791) 
N(C)[C@H](CS)C(=O)O

>  <INCHIKEY>  (791) 
DVOOXRTYGGLORL-GSVOUGTGSA-N

$$$$
NMe-I
     RDKit          2D

 10  9  0  0  0  0  0  0  0  0999 V2000
   -0.7033    1.6772    0.0000 N   0  0  0  0  0  0  0  0  0  0  0  0
   -2.1490    2.0771    0.0000 C   0  0  0  0  0  0  0  0  0  0  0  0
   -0.3268    0.2252    0.0000 C   0  0  0  0  0  0  0  0  0  0  0  0
    1.1189   -0.1748    0.0000 C   0  0  0  0  0  0  0  0  0  0  0  0
    1.4954   -1.6267    0.0000 C   0  0  0  0  0  0  0  0  0  0  0  0
    2.1881    0.8773    0.0000 C   0  0  0  0  0  0  0  0  0  0  0  0
    3.6338    0.4773    0.0000 C   0  0  0  0  0  0  0  0  0  0  0  0
   -1.3960   -0.8269    0.0000 C   0  0  0  0  0  0  0  0  0  0  0  0
   -2.8417   -0.4269    0.0000 O   0  0  0  0  0  0  0  0  0  0  0  0
   -1.0195   -2.2788    0.0000 O   0  0  0  0  0  0  0  0  0  0  0  0
  1  2  1  0
  3  1  1  1
  3  4  1  0
  4  5  1  6
  4  6  1  0
  6  7  1  0
  3  8  1  0
  8  9  2  0
  8 10  1  0
M  END
>  <rName>  (792) 
NMe-I

>  <PQ_SYMBOL>  (792) 
NMe-I

>  <FULL_NAME>  (792) 
N-Methyl-L-Isoleucine

>  <IUPAC_CONDENSED>  (792) 
Me-Ile

>  <IUPAC>  (792) 
(2S,3S)-3-methyl-2-(methylamino)pentanoic acid

>  <TYPE>  (792) 
Backbone

>  <CLASS>  (792) 
alpha

>  <ANALOG>  (792) 
Ile

>  <MOL_WT>  (792) 
145.202

>  <LOGP>  (792) 
0.7051000000000001

>  <TPSA>  (792) 
49.33

>  <POPULARITY>  (792) 
41.5

>  <PROTECTED>  (792) 
TRUE

>  <SMILES>  (792) 
N(C)[C@@H]([C@@H](C)CC)C(=O)O

>  <INCHIKEY>  (792) 
KSPIYJQBLVDRRI-WDSKDSINSA-N

$$$$
NMe-dI
     RDKit          2D

 10  9  0  0  0  0  0  0  0  0999 V2000
   -0.7033    1.6772    0.0000 N   0  0  0  0  0  0  0  0  0  0  0  0
   -2.1490    2.0771    0.0000 C   0  0  0  0  0  0  0  0  0  0  0  0
   -0.3268    0.2252    0.0000 C   0  0  0  0  0  0  0  0  0  0  0  0
    1.1189   -0.1748    0.0000 C   0  0  0  0  0  0  0  0  0  0  0  0
    1.4954   -1.6267    0.0000 C   0  0  0  0  0  0  0  0  0  0  0  0
    2.1881    0.8773    0.0000 C   0  0  0  0  0  0  0  0  0  0  0  0
    3.6338    0.4773    0.0000 C   0  0  0  0  0  0  0  0  0  0  0  0
   -1.3960   -0.8269    0.0000 C   0  0  0  0  0  0  0  0  0  0  0  0
   -2.8417   -0.4269    0.0000 O   0  0  0  0  0  0  0  0  0  0  0  0
   -1.0195   -2.2788    0.0000 O   0  0  0  0  0  0  0  0  0  0  0  0
  1  2  1  0
  3  1  1  6
  3  4  1  0
  4  5  1  1
  4  6  1  0
  6  7  1  0
  3  8  1  0
  8  9  2  0
  8 10  1  0
M  END
>  <rName>  (793) 
NMe-dI

>  <PQ_SYMBOL>  (793) 
NMe-dI

>  <FULL_NAME>  (793) 
N-Methyl-D-Isoleucine

>  <IUPAC_CONDENSED>  (793) 
Me-D-Ile

>  <IUPAC>  (793) 
(2R,3R)-3-methyl-2-(methylamino)pentanoic acid

>  <TYPE>  (793) 
Backbone

>  <CLASS>  (793) 
alpha

>  <ANALOG>  (793) 
Ile

>  <MOL_WT>  (793) 
145.202

>  <LOGP>  (793) 
0.7051000000000001

>  <TPSA>  (793) 
49.33

>  <POPULARITY>  (793) 
13.5

>  <PROTECTED>  (793) 
TRUE

>  <SMILES>  (793) 
N(C)[C@H]([C@H](C)CC)C(=O)O

>  <INCHIKEY>  (793) 
KSPIYJQBLVDRRI-PHDIDXHHSA-N

$$$$
NMe-Nva
     RDKit          2D

  9  8  0  0  0  0  0  0  0  0999 V2000
   -1.4625    1.4907    0.0000 N   0  0  0  0  0  0  0  0  0  0  0  0
   -2.8857    1.0168    0.0000 C   0  0  0  0  0  0  0  0  0  0  0  0
   -0.3405    0.4951    0.0000 C   0  0  0  0  0  0  0  0  0  0  0  0
    1.0826    0.9690    0.0000 C   0  0  0  0  0  0  0  0  0  0  0  0
    2.2046   -0.0266    0.0000 C   0  0  0  0  0  0  0  0  0  0  0  0
    3.6278    0.4473    0.0000 C   0  0  0  0  0  0  0  0  0  0  0  0
   -0.6417   -0.9743    0.0000 C   0  0  0  0  0  0  0  0  0  0  0  0
   -2.0649   -1.4482    0.0000 O   0  0  0  0  0  0  0  0  0  0  0  0
    0.4803   -1.9699    0.0000 O   0  0  0  0  0  0  0  0  0  0  0  0
  1  2  1  0
  1  3  1  0
  3  4  1  1
  4  5  1  0
  5  6  1  0
  3  7  1  0
  7  8  2  0
  7  9  1  0
M  END
>  <rName>  (794) 
NMe-Nva

>  <PQ_SYMBOL>  (794) 
NMe-Nva

>  <FULL_NAME>  (794) 
N-Methyl-L-Norvaline

>  <IUPAC_CONDENSED>  (794) 
Me-Nva

>  <IUPAC>  (794) 
(2S)-2-(methylamino)pentanoic acid

>  <TYPE>  (794) 
Backbone

>  <CLASS>  (794) 
alpha

>  <ANALOG>  (794) 
Val

>  <MOL_WT>  (794) 
131.175

>  <LOGP>  (794) 
0.4591

>  <TPSA>  (794) 
49.33

>  <POPULARITY>  (794) 
24.9

>  <PROTECTED>  (794) 
TRUE

>  <SMILES>  (794) 
N(C)[C@@H](CCC)C(=O)O

>  <INCHIKEY>  (794) 
HCPKYUNZBPVCHC-YFKPBYRVSA-N

$$$$
NMe-D-Nva
     RDKit          2D

  9  8  0  0  0  0  0  0  0  0999 V2000
   -1.4625    1.4907    0.0000 N   0  0  0  0  0  0  0  0  0  0  0  0
   -2.8857    1.0168    0.0000 C   0  0  0  0  0  0  0  0  0  0  0  0
   -0.3405    0.4951    0.0000 C   0  0  0  0  0  0  0  0  0  0  0  0
    1.0826    0.9690    0.0000 C   0  0  0  0  0  0  0  0  0  0  0  0
    2.2046   -0.0266    0.0000 C   0  0  0  0  0  0  0  0  0  0  0  0
    3.6278    0.4473    0.0000 C   0  0  0  0  0  0  0  0  0  0  0  0
   -0.6417   -0.9743    0.0000 C   0  0  0  0  0  0  0  0  0  0  0  0
   -2.0649   -1.4482    0.0000 O   0  0  0  0  0  0  0  0  0  0  0  0
    0.4803   -1.9699    0.0000 O   0  0  0  0  0  0  0  0  0  0  0  0
  1  2  1  0
  1  3  1  0
  3  4  1  6
  4  5  1  0
  5  6  1  0
  3  7  1  0
  7  8  2  0
  7  9  1  0
M  END
>  <rName>  (795) 
NMe-D-Nva

>  <PQ_SYMBOL>  (795) 
NMe-D-Nva

>  <FULL_NAME>  (795) 
N-Methyl-D-Norvaline

>  <IUPAC_CONDENSED>  (795) 
Me-D-Nva

>  <IUPAC>  (795) 
(2R)-2-(methylamino)pentanoic acid

>  <TYPE>  (795) 
Backbone

>  <CLASS>  (795) 
alpha

>  <ANALOG>  (795) 
Val

>  <MOL_WT>  (795) 
131.175

>  <LOGP>  (795) 
0.4591

>  <TPSA>  (795) 
49.33

>  <POPULARITY>  (795) 
15.2

>  <PROTECTED>  (795) 
TRUE

>  <SMILES>  (795) 
N(C)[C@H](CCC)C(=O)O

>  <INCHIKEY>  (795) 
HCPKYUNZBPVCHC-RXMQYKEDSA-N

$$$$
Nle_N3
     RDKit          2D

 12 11  0  0  0  0  0  0  0  0999 V2000
   -2.4844    1.9079    0.0000 N   0  0  0  0  0  0  0  0  0  0  0  0
   -2.5775    0.4108    0.0000 C   0  0  0  0  0  0  0  0  0  0  0  0
   -1.3276   -0.4184    0.0000 C   0  0  0  0  0  0  0  0  0  0  0  0
    0.0155    0.2495    0.0000 C   0  0  0  0  0  0  0  0  0  0  0  0
    1.2655   -0.5797    0.0000 C   0  0  0  0  0  0  0  0  0  0  0  0
    2.6086    0.0882    0.0000 C   0  0  0  0  0  0  0  0  0  0  0  0
    3.8585   -0.7410    0.0000 N   0  0  0  0  0  0  0  0  0  0  0  0
    5.2016   -0.0731    0.0000 N   0  0  0  0  0  0  0  0  0  0  0  0
    6.5447    0.5948    0.0000 N   0  0  0  0  0  0  0  0  0  0  0  0
   -3.9206   -0.2571    0.0000 C   0  0  0  0  0  0  0  0  0  0  0  0
   -4.0138   -1.7542    0.0000 O   0  0  0  0  0  0  0  0  0  0  0  0
   -5.1706    0.5722    0.0000 O   0  0  0  0  0  0  0  0  0  0  0  0
  2  1  1  1
  2  3  1  0
  3  4  1  0
  4  5  1  0
  5  6  1  0
  6  7  1  0
  7  8  2  0
  8  9  2  0
  2 10  1  0
 10 11  2  0
 10 12  1  0
M  CHG  2   8   1   9  -1
M  END
>  <rName>  (796) 
Nle_N3

>  <PQ_SYMBOL>  (796) 
Nle_N3

>  <FULL_NAME>  (796) 
6-Azido-L-Norleucine (azido-L-Lysine)

>  <IUPAC_CONDENSED>  (796) 
Nle(N3)

>  <IUPAC>  (796) 
(2S)-2-amino-6-azidohexanoic acid

>  <TYPE>  (796) 
Backbone

>  <CLASS>  (796) 
alpha

>  <ANALOG>  (796) 
Lys

>  <MOL_WT>  (796) 
172.18800000000002

>  <LOGP>  (796) 
0.8788999999999998

>  <TPSA>  (796) 
112.08

>  <POPULARITY>  (796) 
12

>  <PROTECTED>  (796) 
TRUE

>  <SMILES>  (796) 
N[C@@H](CCCCN=[N+]=[N-])C(=O)O

>  <INCHIKEY>  (796) 
HTFFMYRVHHNNBE-YFKPBYRVSA-N

$$$$
D-Nle_N3
     RDKit          2D

 12 11  0  0  0  0  0  0  0  0999 V2000
   -2.4844    1.9079    0.0000 N   0  0  0  0  0  0  0  0  0  0  0  0
   -2.5775    0.4108    0.0000 C   0  0  0  0  0  0  0  0  0  0  0  0
   -1.3276   -0.4184    0.0000 C   0  0  0  0  0  0  0  0  0  0  0  0
    0.0155    0.2495    0.0000 C   0  0  0  0  0  0  0  0  0  0  0  0
    1.2655   -0.5797    0.0000 C   0  0  0  0  0  0  0  0  0  0  0  0
    2.6086    0.0882    0.0000 C   0  0  0  0  0  0  0  0  0  0  0  0
    3.8585   -0.7410    0.0000 N   0  0  0  0  0  0  0  0  0  0  0  0
    5.2016   -0.0731    0.0000 N   0  0  0  0  0  0  0  0  0  0  0  0
    6.5447    0.5948    0.0000 N   0  0  0  0  0  0  0  0  0  0  0  0
   -3.9206   -0.2571    0.0000 C   0  0  0  0  0  0  0  0  0  0  0  0
   -4.0138   -1.7542    0.0000 O   0  0  0  0  0  0  0  0  0  0  0  0
   -5.1706    0.5722    0.0000 O   0  0  0  0  0  0  0  0  0  0  0  0
  2  1  1  6
  2  3  1  0
  3  4  1  0
  4  5  1  0
  5  6  1  0
  6  7  1  0
  7  8  2  0
  8  9  2  0
  2 10  1  0
 10 11  2  0
 10 12  1  0
M  CHG  2   8   1   9  -1
M  END
>  <rName>  (797) 
D-Nle_N3

>  <PQ_SYMBOL>  (797) 
D-Nle_N3

>  <FULL_NAME>  (797) 
6-Azido-D-Norleucine (azido-D-Lysine)

>  <IUPAC_CONDENSED>  (797) 
D-Nle(N3)

>  <IUPAC>  (797) 
(2R)-2-amino-6-azidohexanoic acid

>  <TYPE>  (797) 
Backbone

>  <CLASS>  (797) 
alpha

>  <ANALOG>  (797) 
Lys

>  <MOL_WT>  (797) 
172.18800000000002

>  <LOGP>  (797) 
0.8788999999999998

>  <TPSA>  (797) 
112.08

>  <POPULARITY>  (797) 
5

>  <PROTECTED>  (797) 
TRUE

>  <SMILES>  (797) 
N[C@H](CCCCN=[N+]=[N-])C(=O)O

>  <INCHIKEY>  (797) 
HTFFMYRVHHNNBE-RXMQYKEDSA-N

$$$$
aMeNva_vinyl
     RDKit          2D

 11 10  0  0  0  0  0  0  0  0999 V2000
   -0.6186    1.8190    0.0000 N   0  0  0  0  0  0  0  0  0  0  0  0
   -1.4256    0.5545    0.0000 C   0  0  0  0  0  0  0  0  0  0  0  0
   -2.6900    1.3614    0.0000 C   0  0  0  0  0  0  0  0  0  0  0  0
   -0.1611   -0.2524    0.0000 C   0  0  0  0  0  0  0  0  0  0  0  0
    1.1700    0.4391    0.0000 C   0  0  0  0  0  0  0  0  0  0  0  0
    2.4344   -0.3678    0.0000 C   0  0  0  0  0  0  0  0  0  0  0  0
    3.7655    0.3238    0.0000 C   0  0  0  0  0  0  0  0  0  0  0  0
    5.0299   -0.4832    0.0000 C   0  0  0  0  0  0  0  0  0  0  0  0
   -2.2325   -0.7100    0.0000 C   0  0  0  0  0  0  0  0  0  0  0  0
   -3.7310   -0.6433    0.0000 O   0  0  0  0  0  0  0  0  0  0  0  0
   -1.5409   -2.0410    0.0000 O   0  0  0  0  0  0  0  0  0  0  0  0
  1  2  1  0
  2  3  1  6
  2  4  1  0
  4  5  1  0
  5  6  1  0
  6  7  1  0
  7  8  2  0
  2  9  1  0
  9 10  2  0
  9 11  1  0
M  END
>  <rName>  (798) 
aMeNva_vinyl

>  <PQ_SYMBOL>  (798) 
aMeNva_vinyl

>  <FULL_NAME>  (798) 
(2S)-2-amino-2-methylhept-6-enoic acid

>  <IUPAC_CONDENSED>  (798) 
aMeNva(vinyl)

>  <IUPAC>  (798) 
(2S)-2-amino-2-methylhept-6-enoic acid

>  <TYPE>  (798) 
Backbone

>  <CLASS>  (798) 
alpha

>  <ANALOG>  (798) 
Leu

>  <MOL_WT>  (798) 
157.213

>  <LOGP>  (798) 
1.1446999999999998

>  <TPSA>  (798) 
63.32000000000001

>  <POPULARITY>  (798) 
23.6

>  <PROTECTED>  (798) 
TRUE

>  <SMILES>  (798) 
N[C@@](C)(CCCC=C)C(=O)O

>  <INCHIKEY>  (798) 
AERCCJGORROTKW-QMMMGPOBSA-N

$$$$
Phe_24_5triF
     RDKit          2D

 15 15  0  0  0  0  0  0  0  0999 V2000
   -1.7432    1.8004    0.0000 N   0  0  0  0  0  0  0  0  0  0  0  0
   -2.2534    0.3899    0.0000 C   0  0  0  0  0  0  0  0  0  0  0  0
   -1.2870   -0.7573    0.0000 C   0  0  0  0  0  0  0  0  0  0  0  0
    0.1897   -0.4940    0.0000 C   0  0  0  0  0  0  0  0  0  0  0  0
    0.7000    0.9165    0.0000 C   0  0  0  0  0  0  0  0  0  0  0  0
    2.1767    1.1799    0.0000 C   0  0  0  0  0  0  0  0  0  0  0  0
    2.6869    2.5904    0.0000 F   0  0  0  0  0  0  0  0  0  0  0  0
    3.1431    0.0327    0.0000 C   0  0  0  0  0  0  0  0  0  0  0  0
    4.6198    0.2961    0.0000 F   0  0  0  0  0  0  0  0  0  0  0  0
    2.6328   -1.3778    0.0000 C   0  0  0  0  0  0  0  0  0  0  0  0
    1.1561   -1.6412    0.0000 C   0  0  0  0  0  0  0  0  0  0  0  0
    0.6458   -3.0517    0.0000 F   0  0  0  0  0  0  0  0  0  0  0  0
   -3.7301    0.1265    0.0000 C   0  0  0  0  0  0  0  0  0  0  0  0
   -4.2404   -1.2840    0.0000 O   0  0  0  0  0  0  0  0  0  0  0  0
   -4.6966    1.2737    0.0000 O   0  0  0  0  0  0  0  0  0  0  0  0
  2  1  1  1
  2  3  1  0
  3  4  1  0
  4  5  1  0
  5  6  2  0
  6  7  1  0
  6  8  1  0
  8  9  1  0
  8 10  2  0
 10 11  1  0
 11 12  1  0
  2 13  1  0
 13 14  2  0
 13 15  1  0
 11  4  2  0
M  END
>  <rName>  (799) 
Phe_24_5triF

>  <PQ_SYMBOL>  (799) 
Phe_24_5triF

>  <FULL_NAME>  (799) 
(S)-2-Amino-3-(2,4,5-trifluorophenyl)propanoic acid

>  <IUPAC_CONDENSED>  (799) 
Phe(2,4,5-triF)

>  <IUPAC>  (799) 
(2S)-2-amino-3-(2,4,5-trifluorophenyl)propanoic acid

>  <TYPE>  (799) 
Backbone

>  <CLASS>  (799) 
alpha

>  <ANALOG>  (799) 
Phe

>  <MOL_WT>  (799) 
219.16199999999998

>  <LOGP>  (799) 
1.0583000000000002

>  <TPSA>  (799) 
63.32000000000001

>  <POPULARITY>  (799) 
6.5

>  <PROTECTED>  (799) 
TRUE

>  <SMILES>  (799) 
N[C@@H](Cc1(cc(F)c(F)cc1F))C(=O)O

>  <INCHIKEY>  (799) 
SWJFYJHCOWRRLR-QMMMGPOBSA-N

$$$$
Gly_2bromoallyl
     RDKit          2D

  9  8  0  0  0  0  0  0  0  0999 V2000
   -0.2826   -1.7410    0.0000 N   0  0  0  0  0  0  0  0  0  0  0  0
   -0.5402   -0.2633    0.0000 C   0  0  0  0  0  0  0  0  0  0  0  0
    0.6108    0.6986    0.0000 C   0  0  0  0  0  0  0  0  0  0  0  0
    2.0193    0.1828    0.0000 C   0  0  0  0  0  0  0  0  0  0  0  0
    3.1703    1.1447    0.0000 C   0  0  0  0  0  0  0  0  0  0  0  0
    2.2769   -1.2950    0.0000 Br  0  0  0  0  0  0  0  0  0  0  0  0
   -1.9487    0.2525    0.0000 C   0  0  0  0  0  0  0  0  0  0  0  0
   -2.2062    1.7302    0.0000 O   0  0  0  0  0  0  0  0  0  0  0  0
   -3.0997   -0.7094    0.0000 O   0  0  0  0  0  0  0  0  0  0  0  0
  2  1  1  6
  2  3  1  0
  3  4  1  0
  4  5  2  0
  4  6  1  0
  2  7  1  0
  7  8  2  0
  7  9  1  0
M  END
>  <rName>  (800) 
Gly_2bromoallyl

>  <PQ_SYMBOL>  (800) 
Gly_2bromoallyl

>  <FULL_NAME>  (800) 
(S)-2-Amino-4-bromopent-4-enoic acid

>  <IUPAC_CONDENSED>  (800) 
Gly(2-bromoallyl)

>  <IUPAC>  (800) 
(2S)-2-amino-4-bromopent-4-enoic acid

>  <TYPE>  (800) 
Backbone

>  <CLASS>  (800) 
alpha

>  <ANALOG>  (800) 
X

>  <MOL_WT>  (800) 
194.028

>  <LOGP>  (800) 
0.6969999999999998

>  <TPSA>  (800) 
63.32000000000001

>  <POPULARITY>  (800) 
11.8

>  <PROTECTED>  (800) 
TRUE

>  <SMILES>  (800) 
N[C@@H](CC(=C)Br)C(=O)O

>  <INCHIKEY>  (800) 
YTCSGBSYHNQHFD-BYPYZUCNSA-N

$$$$
D-Gly_2bromoallyl
     RDKit          2D

  9  8  0  0  0  0  0  0  0  0999 V2000
   -0.2826   -1.7410    0.0000 N   0  0  0  0  0  0  0  0  0  0  0  0
   -0.5402   -0.2633    0.0000 C   0  0  0  0  0  0  0  0  0  0  0  0
    0.6108    0.6986    0.0000 C   0  0  0  0  0  0  0  0  0  0  0  0
    2.0193    0.1828    0.0000 C   0  0  0  0  0  0  0  0  0  0  0  0
    3.1703    1.1447    0.0000 C   0  0  0  0  0  0  0  0  0  0  0  0
    2.2769   -1.2950    0.0000 Br  0  0  0  0  0  0  0  0  0  0  0  0
   -1.9487    0.2525    0.0000 C   0  0  0  0  0  0  0  0  0  0  0  0
   -2.2062    1.7302    0.0000 O   0  0  0  0  0  0  0  0  0  0  0  0
   -3.0997   -0.7094    0.0000 O   0  0  0  0  0  0  0  0  0  0  0  0
  2  1  1  1
  2  3  1  0
  3  4  1  0
  4  5  2  0
  4  6  1  0
  2  7  1  0
  7  8  2  0
  7  9  1  0
M  END
>  <rName>  (801) 
D-Gly_2bromoallyl

>  <PQ_SYMBOL>  (801) 
D-Gly_2bromoallyl

>  <FULL_NAME>  (801) 
(R)-2-Amino-4-bromopent-4-enoic acid

>  <IUPAC_CONDENSED>  (801) 
D-Gly(2-bromoallyl)

>  <IUPAC>  (801) 
(2R)-2-amino-4-bromopent-4-enoic acid

>  <TYPE>  (801) 
Backbone

>  <CLASS>  (801) 
alpha

>  <ANALOG>  (801) 
X

>  <MOL_WT>  (801) 
194.028

>  <LOGP>  (801) 
0.6969999999999998

>  <TPSA>  (801) 
63.32000000000001

>  <POPULARITY>  (801) 
3.9

>  <PROTECTED>  (801) 
TRUE

>  <SMILES>  (801) 
N[C@H](CC(=C)Br)C(=O)O

>  <INCHIKEY>  (801) 
YTCSGBSYHNQHFD-SCSAIBSYSA-N

$$$$
Ac5c
     RDKit          2D

  9  9  0  0  0  0  0  0  0  0999 V2000
    0.7422   -1.6403    0.0000 N   0  0  0  0  0  0  0  0  0  0  0  0
   -0.0160   -0.3460    0.0000 C   0  0  0  0  0  0  0  0  0  0  0  0
   -0.4885    1.0777    0.0000 C   0  0  0  0  0  0  0  0  0  0  0  0
   -1.9885    1.0682    0.0000 C   0  0  0  0  0  0  0  0  0  0  0  0
   -2.4430   -0.3613    0.0000 C   0  0  0  0  0  0  0  0  0  0  0  0
   -1.2239   -1.2353    0.0000 C   0  0  0  0  0  0  0  0  0  0  0  0
    1.3504    0.2728    0.0000 C   0  0  0  0  0  0  0  0  0  0  0  0
    1.4978    1.7655    0.0000 O   0  0  0  0  0  0  0  0  0  0  0  0
    2.5695   -0.6013    0.0000 O   0  0  0  0  0  0  0  0  0  0  0  0
  1  2  1  0
  2  3  1  0
  3  4  1  0
  4  5  1  0
  5  6  1  0
  2  7  1  0
  7  8  2  0
  7  9  1  0
  6  2  1  0
M  END
>  <rName>  (802) 
Ac5c

>  <PQ_SYMBOL>  (802) 
Ac5c

>  <FULL_NAME>  (802) 
1-Aminocyclopentanecarboxylic acid

>  <IUPAC_CONDENSED>  (802) 
Ac5c

>  <IUPAC>  (802) 
1-aminocyclopentanecarboxylic acid

>  <TYPE>  (802) 
Backbone

>  <CLASS>  (802) 
alpha

>  <ANALOG>  (802) 
X

>  <MOL_WT>  (802) 
129.15900000000002

>  <LOGP>  (802) 
0.34249999999999975

>  <TPSA>  (802) 
63.32000000000001

>  <POPULARITY>  (802) 
34.9

>  <PROTECTED>  (802) 
TRUE

>  <SMILES>  (802) 
NC1(CCCC1)C(=O)O

>  <INCHIKEY>  (802) 
NILQLFBWTXNUOE-UHFFFAOYSA-N

$$$$
D-Phe_3CF3
     RDKit          2D

 16 16  0  0  0  0  0  0  0  0999 V2000
   -2.9171    1.6042    0.0000 N   0  0  0  0  0  0  0  0  0  0  0  0
   -2.9225    0.1042    0.0000 C   0  0  0  0  0  0  0  0  0  0  0  0
   -1.6261   -0.6504    0.0000 C   0  0  0  0  0  0  0  0  0  0  0  0
   -0.3244    0.0949    0.0000 C   0  0  0  0  0  0  0  0  0  0  0  0
   -0.3190    1.5949    0.0000 C   0  0  0  0  0  0  0  0  0  0  0  0
    0.9827    2.3402    0.0000 C   0  0  0  0  0  0  0  0  0  0  0  0
    2.2790    1.5856    0.0000 C   0  0  0  0  0  0  0  0  0  0  0  0
    2.2736    0.0856    0.0000 C   0  0  0  0  0  0  0  0  0  0  0  0
    0.9719   -0.6597    0.0000 C   0  0  0  0  0  0  0  0  0  0  0  0
    3.5700   -0.6691    0.0000 C   0  0  0  0  0  0  0  0  0  0  0  0
    4.8663   -1.4237    0.0000 F   0  0  0  0  0  0  0  0  0  0  0  0
    2.8153   -1.9654    0.0000 F   0  0  0  0  0  0  0  0  0  0  0  0
    4.3246    0.6273    0.0000 F   0  0  0  0  0  0  0  0  0  0  0  0
   -4.2242   -0.6411    0.0000 C   0  0  0  0  0  0  0  0  0  0  0  0
   -4.2296   -2.1411    0.0000 O   0  0  0  0  0  0  0  0  0  0  0  0
   -5.5205    0.1136    0.0000 O   0  0  0  0  0  0  0  0  0  0  0  0
  2  1  1  6
  2  3  1  0
  3  4  1  0
  4  5  1  0
  5  6  2  0
  6  7  1  0
  7  8  2  0
  8  9  1  0
  8 10  1  0
 10 11  1  0
 10 12  1  0
 10 13  1  0
  2 14  1  0
 14 15  2  0
 14 16  1  0
  9  4  2  0
M  END
>  <rName>  (803) 
D-Phe_3CF3

>  <PQ_SYMBOL>  (803) 
D-Phe_3CF3

>  <FULL_NAME>  (803) 
3-Trifluoromethyl-D-Phenylalanine

>  <IUPAC_CONDENSED>  (803) 
D-Phe(3-CF3)

>  <IUPAC>  (803) 
(2R)-2-amino-3-(3-(trifluoromethyl)phenyl)propanoic acid

>  <TYPE>  (803) 
Backbone

>  <CLASS>  (803) 
alpha

>  <ANALOG>  (803) 
Phe

>  <MOL_WT>  (803) 
233.18899999999994

>  <LOGP>  (803) 
1.6598000000000002

>  <TPSA>  (803) 
63.32000000000001

>  <POPULARITY>  (803) 
12.4

>  <PROTECTED>  (803) 
TRUE

>  <SMILES>  (803) 
N[C@H](Cc1(cccc(c1)C(F)(F)F))C(=O)O

>  <INCHIKEY>  (803) 
BURBNIPKSRJAIQ-MRVPVSSYSA-N

$$$$
D-Phe_34diCl
     RDKit          2D

 14 14  0  0  0  0  0  0  0  0999 V2000
   -2.0094    1.6916    0.0000 N   0  0  0  0  0  0  0  0  0  0  0  0
   -2.3243    0.2250    0.0000 C   0  0  0  0  0  0  0  0  0  0  0  0
   -1.2116   -0.7809    0.0000 C   0  0  0  0  0  0  0  0  0  0  0  0
    0.2159   -0.3203    0.0000 C   0  0  0  0  0  0  0  0  0  0  0  0
    0.5308    1.1463    0.0000 C   0  0  0  0  0  0  0  0  0  0  0  0
    1.9583    1.6069    0.0000 C   0  0  0  0  0  0  0  0  0  0  0  0
    3.0710    0.6009    0.0000 C   0  0  0  0  0  0  0  0  0  0  0  0
    4.4985    1.0615    0.0000 Cl  0  0  0  0  0  0  0  0  0  0  0  0
    2.7561   -0.8657    0.0000 C   0  0  0  0  0  0  0  0  0  0  0  0
    3.8688   -1.8716    0.0000 Cl  0  0  0  0  0  0  0  0  0  0  0  0
    1.3286   -1.3263    0.0000 C   0  0  0  0  0  0  0  0  0  0  0  0
   -3.7518   -0.2356    0.0000 C   0  0  0  0  0  0  0  0  0  0  0  0
   -4.0666   -1.7022    0.0000 O   0  0  0  0  0  0  0  0  0  0  0  0
   -4.8644    0.7704    0.0000 O   0  0  0  0  0  0  0  0  0  0  0  0
  2  1  1  6
  2  3  1  0
  3  4  1  0
  4  5  1  0
  5  6  2  0
  6  7  1  0
  7  8  1  0
  7  9  2  0
  9 10  1  0
  9 11  1  0
  2 12  1  0
 12 13  2  0
 12 14  1  0
 11  4  2  0
M  END
>  <rName>  (804) 
D-Phe_34diCl

>  <PQ_SYMBOL>  (804) 
D-Phe_34diCl

>  <FULL_NAME>  (804) 
3,4-Dichloro-D-Phenylalanine

>  <IUPAC_CONDENSED>  (804) 
D-Phe(3,4-diCl)

>  <IUPAC>  (804) 
(2R)-2-amino-3-(3,4-dichlorophenyl)propanoic acid

>  <TYPE>  (804) 
Backbone

>  <CLASS>  (804) 
alpha

>  <ANALOG>  (804) 
Phe

>  <MOL_WT>  (804) 
234.082

>  <LOGP>  (804) 
1.9478

>  <TPSA>  (804) 
63.32000000000001

>  <POPULARITY>  (804) 
11.3

>  <PROTECTED>  (804) 
TRUE

>  <SMILES>  (804) 
N[C@H](Cc1(ccc(Cl)c(Cl)c1))C(=O)O

>  <INCHIKEY>  (804) 
NRCSJHVDTAAISV-MRVPVSSYSA-N

$$$$
Sta
     RDKit          2D

 12 11  0  0  0  0  0  0  0  0999 V2000
   -0.9360   -1.7497    0.0000 N   0  0  0  0  0  0  0  0  0  0  0  0
   -0.7004   -0.2683    0.0000 C   0  0  0  0  0  0  0  0  0  0  0  0
   -1.8655    0.6764    0.0000 C   0  0  0  0  0  0  0  0  0  0  0  0
   -3.2662    0.1397    0.0000 C   0  0  0  0  0  0  0  0  0  0  0  0
   -4.4313    1.0845    0.0000 C   0  0  0  0  0  0  0  0  0  0  0  0
   -3.5018   -1.3417    0.0000 C   0  0  0  0  0  0  0  0  0  0  0  0
    0.7004    0.2683    0.0000 C   0  0  0  0  0  0  0  0  0  0  0  0
    0.9360    1.7497    0.0000 O   0  0  0  0  0  0  0  0  0  0  0  0
    1.8655   -0.6764    0.0000 C   0  0  0  0  0  0  0  0  0  0  0  0
    3.2662   -0.1397    0.0000 C   0  0  0  0  0  0  0  0  0  0  0  0
    3.5018    1.3417    0.0000 O   0  0  0  0  0  0  0  0  0  0  0  0
    4.4313   -1.0845    0.0000 O   0  0  0  0  0  0  0  0  0  0  0  0
  2  1  1  1
  2  3  1  0
  3  4  1  0
  4  5  1  0
  4  6  1  0
  2  7  1  0
  7  8  1  1
  7  9  1  0
  9 10  1  0
 10 11  2  0
 10 12  1  0
M  END
>  <rName>  (805) 
Sta

>  <PQ_SYMBOL>  (805) 
Sta

>  <FULL_NAME>  (805) 
Statine

>  <IUPAC_CONDENSED>  (805) 
Sta

>  <IUPAC>  (805) 
(3S,4S)-4-amino-3-hydroxy-6-methylheptanoic acid

>  <TYPE>  (805) 
Backbone

>  <CLASS>  (805) 
gamma

>  <ANALOG>  (805) 
Leu

>  <MOL_WT>  (805) 
175.22799999999998

>  <LOGP>  (805) 
0.19539999999999957

>  <TPSA>  (805) 
83.55

>  <POPULARITY>  (805) 
8.2

>  <PROTECTED>  (805) 
TRUE

>  <SMILES>  (805) 
N[C@@H](CC(C)C)[C@@H](O)CC(=O)O

>  <INCHIKEY>  (805) 
DFVFTMTWCUHJBL-BQBZGAKWSA-N

$$$$
Ac6c
     RDKit          2D

 10 10  0  0  0  0  0  0  0  0999 V2000
    1.1103   -1.5851    0.0000 N   0  0  0  0  0  0  0  0  0  0  0  0
    0.2419   -0.3621    0.0000 C   0  0  0  0  0  0  0  0  0  0  0  0
   -0.8118   -1.4296    0.0000 C   0  0  0  0  0  0  0  0  0  0  0  0
   -2.2632   -1.0509    0.0000 C   0  0  0  0  0  0  0  0  0  0  0  0
   -2.6609    0.3955    0.0000 C   0  0  0  0  0  0  0  0  0  0  0  0
   -1.6072    1.4630    0.0000 C   0  0  0  0  0  0  0  0  0  0  0  0
   -0.1558    1.0843    0.0000 C   0  0  0  0  0  0  0  0  0  0  0  0
    1.5972    0.2807    0.0000 C   0  0  0  0  0  0  0  0  0  0  0  0
    1.7181    1.7758    0.0000 O   0  0  0  0  0  0  0  0  0  0  0  0
    2.8315   -0.5716    0.0000 O   0  0  0  0  0  0  0  0  0  0  0  0
  1  2  1  0
  2  3  1  0
  3  4  1  0
  4  5  1  0
  5  6  1  0
  6  7  1  0
  2  8  1  0
  8  9  2  0
  8 10  1  0
  7  2  1  0
M  END
>  <rName>  (806) 
Ac6c

>  <PQ_SYMBOL>  (806) 
Ac6c

>  <FULL_NAME>  (806) 
1-aminocyclohexane-1-carboxylic acid

>  <IUPAC_CONDENSED>  (806) 
Ac6c

>  <IUPAC>  (806) 
1-aminocyclohexanecarboxylic acid

>  <TYPE>  (806) 
Backbone

>  <CLASS>  (806) 
alpha

>  <ANALOG>  (806) 
X

>  <MOL_WT>  (806) 
143.186

>  <LOGP>  (806) 
0.7325999999999997

>  <TPSA>  (806) 
63.32000000000001

>  <POPULARITY>  (806) 
32.7

>  <PROTECTED>  (806) 
TRUE

>  <SMILES>  (806) 
NC1(CCCCC1)C(=O)O

>  <INCHIKEY>  (806) 
WOXWUZCRWJWTRT-UHFFFAOYSA-N

$$$$
Phe_F5
     RDKit          2D

 17 17  0  0  0  0  0  0  0  0999 V2000
   -2.1241    1.6089    0.0000 N   0  0  0  0  0  0  0  0  0  0  0  0
   -2.4801    0.1517    0.0000 C   0  0  0  0  0  0  0  0  0  0  0  0
   -1.3962   -0.8851    0.0000 C   0  0  0  0  0  0  0  0  0  0  0  0
    0.0438   -0.4648    0.0000 C   0  0  0  0  0  0  0  0  0  0  0  0
    0.3997    0.9923    0.0000 C   0  0  0  0  0  0  0  0  0  0  0  0
   -0.6842    2.0292    0.0000 F   0  0  0  0  0  0  0  0  0  0  0  0
    1.8397    1.4126    0.0000 C   0  0  0  0  0  0  0  0  0  0  0  0
    2.1956    2.8697    0.0000 F   0  0  0  0  0  0  0  0  0  0  0  0
    2.9236    0.3757    0.0000 C   0  0  0  0  0  0  0  0  0  0  0  0
    4.3635    0.7960    0.0000 F   0  0  0  0  0  0  0  0  0  0  0  0
    2.5676   -1.0814    0.0000 C   0  0  0  0  0  0  0  0  0  0  0  0
    3.6515   -2.1183    0.0000 F   0  0  0  0  0  0  0  0  0  0  0  0
    1.1277   -1.5017    0.0000 C   0  0  0  0  0  0  0  0  0  0  0  0
    0.7717   -2.9589    0.0000 F   0  0  0  0  0  0  0  0  0  0  0  0
   -3.9200   -0.2685    0.0000 C   0  0  0  0  0  0  0  0  0  0  0  0
   -4.2760   -1.7257    0.0000 O   0  0  0  0  0  0  0  0  0  0  0  0
   -5.0039    0.7683    0.0000 O   0  0  0  0  0  0  0  0  0  0  0  0
  2  1  1  1
  2  3  1  0
  3  4  1  0
  4  5  2  0
  5  6  1  0
  5  7  1  0
  7  8  1  0
  7  9  2  0
  9 10  1  0
  9 11  1  0
 11 12  1  0
 11 13  2  0
 13 14  1  0
  2 15  1  0
 15 16  2  0
 15 17  1  0
 13  4  1  0
M  END
>  <rName>  (807) 
Phe_F5

>  <PQ_SYMBOL>  (807) 
Phe_F5

>  <FULL_NAME>  (807) 
2,3,4,5,6-pentafluoro-L-phenylalanine

>  <IUPAC_CONDENSED>  (807) 
Phe(F5)

>  <IUPAC>  (807) 
(2S)-2-amino-3-(2,3,4,5,6-pentafluorophenyl)propanoic acid

>  <TYPE>  (807) 
Backbone

>  <CLASS>  (807) 
alpha

>  <ANALOG>  (807) 
Phe

>  <MOL_WT>  (807) 
255.14199999999997

>  <LOGP>  (807) 
1.3365000000000002

>  <TPSA>  (807) 
63.32000000000001

>  <POPULARITY>  (807) 
26.4

>  <PROTECTED>  (807) 
TRUE

>  <SMILES>  (807) 
N[C@@H](Cc1(c(F)c(F)c(F)c(F)c1F))C(=O)O

>  <INCHIKEY>  (807) 
YYTDJPUFAVPHQA-VKHMYHEASA-N

$$$$
D-Tyr_Et
     RDKit          2D

 15 15  0  0  0  0  0  0  0  0999 V2000
   -2.5029    1.6750    0.0000 N   0  0  0  0  0  0  0  0  0  0  0  0
   -2.9013    0.2288    0.0000 C   0  0  0  0  0  0  0  0  0  0  0  0
   -1.8481   -0.8393    0.0000 C   0  0  0  0  0  0  0  0  0  0  0  0
   -0.3966   -0.4612    0.0000 C   0  0  0  0  0  0  0  0  0  0  0  0
    0.0019    0.9849    0.0000 C   0  0  0  0  0  0  0  0  0  0  0  0
    1.4534    1.3629    0.0000 C   0  0  0  0  0  0  0  0  0  0  0  0
    2.5066    0.2948    0.0000 C   0  0  0  0  0  0  0  0  0  0  0  0
    3.9582    0.6728    0.0000 O   0  0  0  0  0  0  0  0  0  0  0  0
    5.0114   -0.3953    0.0000 C   0  0  0  0  0  0  0  0  0  0  0  0
    6.4629   -0.0173    0.0000 C   0  0  0  0  0  0  0  0  0  0  0  0
    2.1082   -1.1513    0.0000 C   0  0  0  0  0  0  0  0  0  0  0  0
    0.6566   -1.5293    0.0000 C   0  0  0  0  0  0  0  0  0  0  0  0
   -4.3529   -0.1492    0.0000 C   0  0  0  0  0  0  0  0  0  0  0  0
   -4.7513   -1.5953    0.0000 O   0  0  0  0  0  0  0  0  0  0  0  0
   -5.4061    0.9189    0.0000 O   0  0  0  0  0  0  0  0  0  0  0  0
  2  1  1  6
  2  3  1  0
  3  4  1  0
  4  5  1  0
  5  6  2  0
  6  7  1  0
  7  8  1  0
  8  9  1  0
  9 10  1  0
  7 11  2  0
 11 12  1  0
  2 13  1  0
 13 14  2  0
 13 15  1  0
 12  4  2  0
M  END
>  <rName>  (808) 
D-Tyr_Et

>  <PQ_SYMBOL>  (808) 
D-Tyr_Et

>  <FULL_NAME>  (808) 
O4-ethyl-D-tyrosine

>  <IUPAC_CONDENSED>  (808) 
D-Tyr(Et)

>  <IUPAC>  (808) 
(2R)-2-amino-3-(4-ethoxyphenyl)propanoic acid

>  <TYPE>  (808) 
Backbone

>  <CLASS>  (808) 
alpha

>  <ANALOG>  (808) 
Tyr

>  <MOL_WT>  (808) 
209.24499999999998

>  <LOGP>  (808) 
1.0396999999999998

>  <TPSA>  (808) 
72.55

>  <POPULARITY>  (808) 
13.6

>  <PROTECTED>  (808) 
TRUE

>  <SMILES>  (808) 
N[C@H](Cc1(ccc(OCC)cc1))C(=O)O

>  <INCHIKEY>  (808) 
RMYPEYHEPIZYDJ-SNVBAGLBSA-N

$$$$
Pra
     RDKit          2D

  8  7  0  0  0  0  0  0  0  0999 V2000
    0.0877   -1.7162    0.0000 N   0  0  0  0  0  0  0  0  0  0  0  0
   -0.2706   -0.2596    0.0000 C   0  0  0  0  0  0  0  0  0  0  0  0
    0.8117    0.7789    0.0000 C   0  0  0  0  0  0  0  0  0  0  0  0
    2.2523    0.3609    0.0000 C   0  0  0  0  0  0  0  0  0  0  0  0
    3.6929   -0.0571    0.0000 C   0  0  0  0  0  0  0  0  0  0  0  0
   -1.7112    0.1584    0.0000 C   0  0  0  0  0  0  0  0  0  0  0  0
   -2.0694    1.6149    0.0000 O   0  0  0  0  0  0  0  0  0  0  0  0
   -2.7934   -0.8802    0.0000 O   0  0  0  0  0  0  0  0  0  0  0  0
  2  1  1  6
  2  3  1  0
  3  4  1  0
  4  5  3  0
  2  6  1  0
  6  7  2  0
  6  8  1  0
M  END
>  <rName>  (809) 
Pra

>  <PQ_SYMBOL>  (809) 
Pra

>  <FULL_NAME>  (809) 
propargylglycine

>  <IUPAC_CONDENSED>  (809) 
Pra

>  <IUPAC>  (809) 
(2S)-2-aminopent-4-ynoic acid

>  <TYPE>  (809) 
Backbone

>  <CLASS>  (809) 
alpha

>  <ANALOG>  (809) 
Val

>  <MOL_WT>  (809) 
113.11599999999997

>  <LOGP>  (809) 
-0.5784000000000002

>  <TPSA>  (809) 
63.32000000000001

>  <POPULARITY>  (809) 
22.9

>  <PROTECTED>  (809) 
TRUE

>  <SMILES>  (809) 
N[C@@H](CC#C)C(=O)O

>  <INCHIKEY>  (809) 
DGYHPLMPMRKMPD-BYPYZUCNSA-N

$$$$
Pro_4RPh
     RDKit          2D

 14 15  0  0  0  0  0  0  0  0999 V2000
   -2.0158    1.6013    0.0000 N   0  0  0  0  0  0  0  0  0  0  0  0
   -2.3178    0.1320    0.0000 C   0  0  0  0  0  0  0  0  0  0  0  0
   -1.0138   -0.6092    0.0000 C   0  0  0  0  0  0  0  0  0  0  0  0
    0.0942    0.4019    0.0000 C   0  0  0  0  0  0  0  0  0  0  0  0
   -0.5251    1.7681    0.0000 C   0  0  0  0  0  0  0  0  0  0  0  0
    1.5635    0.0999    0.0000 C   0  0  0  0  0  0  0  0  0  0  0  0
    2.0365   -1.3236    0.0000 C   0  0  0  0  0  0  0  0  0  0  0  0
    3.5058   -1.6256    0.0000 C   0  0  0  0  0  0  0  0  0  0  0  0
    4.5020   -0.5042    0.0000 C   0  0  0  0  0  0  0  0  0  0  0  0
    4.0290    0.9192    0.0000 C   0  0  0  0  0  0  0  0  0  0  0  0
    2.5597    1.2213    0.0000 C   0  0  0  0  0  0  0  0  0  0  0  0
   -3.6840   -0.4872    0.0000 C   0  0  0  0  0  0  0  0  0  0  0  0
   -3.8308   -1.9800    0.0000 O   0  0  0  0  0  0  0  0  0  0  0  0
   -4.9034    0.3863    0.0000 O   0  0  0  0  0  0  0  0  0  0  0  0
  1  2  1  0
  2  3  1  0
  3  4  1  0
  4  5  1  0
  4  6  1  1
  6  7  2  0
  7  8  1  0
  8  9  2  0
  9 10  1  0
 10 11  2  0
  2 12  1  1
 12 13  2  0
 12 14  1  0
  5  1  1  0
 11  6  1  0
M  END
>  <rName>  (810) 
Pro_4RPh

>  <PQ_SYMBOL>  (810) 
Pro_4RPh

>  <FULL_NAME>  (810) 
(4R)-4-Phenyl-L-proline

>  <IUPAC_CONDENSED>  (810) 
Pro(4R-Ph)

>  <IUPAC>  (810) 
(2S,4R)-4-phenylpyrrolidine-2-carboxylic acid

>  <TYPE>  (810) 
Backbone

>  <CLASS>  (810) 
alpha

>  <ANALOG>  (810) 
Pro

>  <MOL_WT>  (810) 
191.23

>  <LOGP>  (810) 
1.2167

>  <TPSA>  (810) 
49.33

>  <POPULARITY>  (810) 
9

>  <PROTECTED>  (810) 
TRUE

>  <SMILES>  (810) 
N1[C@@H](C[C@@H](C1)c2(ccccc2))C(=O)O

>  <INCHIKEY>  (810) 
JHHOFXBPLJDHOR-UWVGGRQHSA-N

$$$$
D-Phe_3Ph
     RDKit          2D

 18 19  0  0  0  0  0  0  0  0999 V2000
   -3.8804    1.4159    0.0000 N   0  0  0  0  0  0  0  0  0  0  0  0
   -3.6989   -0.0731    0.0000 C   0  0  0  0  0  0  0  0  0  0  0  0
   -2.3187   -0.6604    0.0000 C   0  0  0  0  0  0  0  0  0  0  0  0
   -1.1199    0.2413    0.0000 C   0  0  0  0  0  0  0  0  0  0  0  0
   -1.3014    1.7303    0.0000 C   0  0  0  0  0  0  0  0  0  0  0  0
   -0.1027    2.6319    0.0000 C   0  0  0  0  0  0  0  0  0  0  0  0
    1.2776    2.0446    0.0000 C   0  0  0  0  0  0  0  0  0  0  0  0
    1.4590    0.5556    0.0000 C   0  0  0  0  0  0  0  0  0  0  0  0
    0.2603   -0.3461    0.0000 C   0  0  0  0  0  0  0  0  0  0  0  0
    2.8393   -0.0317    0.0000 C   0  0  0  0  0  0  0  0  0  0  0  0
    3.0208   -1.5207    0.0000 C   0  0  0  0  0  0  0  0  0  0  0  0
    4.4010   -2.1080    0.0000 C   0  0  0  0  0  0  0  0  0  0  0  0
    5.5997   -1.2064    0.0000 C   0  0  0  0  0  0  0  0  0  0  0  0
    5.4183    0.2826    0.0000 C   0  0  0  0  0  0  0  0  0  0  0  0
    4.0380    0.8699    0.0000 C   0  0  0  0  0  0  0  0  0  0  0  0
   -4.8977   -0.9747    0.0000 C   0  0  0  0  0  0  0  0  0  0  0  0
   -4.7162   -2.4637    0.0000 O   0  0  0  0  0  0  0  0  0  0  0  0
   -6.2779   -0.3874    0.0000 O   0  0  0  0  0  0  0  0  0  0  0  0
  2  1  1  6
  2  3  1  0
  3  4  1  0
  4  5  1  0
  5  6  2  0
  6  7  1  0
  7  8  2  0
  8  9  1  0
  8 10  1  0
 10 11  2  0
 11 12  1  0
 12 13  2  0
 13 14  1  0
 14 15  2  0
  2 16  1  0
 16 17  2  0
 16 18  1  0
  9  4  2  0
 15 10  1  0
M  END
>  <rName>  (811) 
D-Phe_3Ph

>  <PQ_SYMBOL>  (811) 
D-Phe_3Ph

>  <FULL_NAME>  (811) 
3-phenyl-D-phenylalanine

>  <IUPAC_CONDENSED>  (811) 
D-Phe(3-Ph)

>  <IUPAC>  (811) 
(2R)-2-amino-3-(3-phenylphenyl)propanoic acid

>  <TYPE>  (811) 
Backbone

>  <CLASS>  (811) 
alpha

>  <ANALOG>  (811) 
Phe

>  <MOL_WT>  (811) 
241.29

>  <LOGP>  (811) 
2.308

>  <TPSA>  (811) 
63.32000000000001

>  <POPULARITY>  (811) 
5.3

>  <PROTECTED>  (811) 
TRUE

>  <SMILES>  (811) 
N[C@H](Cc1(cccc(c1)c2(ccccc2)))C(=O)O

>  <INCHIKEY>  (811) 
XXPHIHDDXCFWMS-CQSZACIVSA-N

$$$$
D-Phe_4I
     RDKit          2D

 13 13  0  0  0  0  0  0  0  0999 V2000
   -1.5766    1.6851    0.0000 N   0  0  0  0  0  0  0  0  0  0  0  0
   -2.0128    0.2500    0.0000 C   0  0  0  0  0  0  0  0  0  0  0  0
   -0.9880   -0.8454    0.0000 C   0  0  0  0  0  0  0  0  0  0  0  0
    0.4730   -0.5055    0.0000 C   0  0  0  0  0  0  0  0  0  0  0  0
    0.9092    0.9296    0.0000 C   0  0  0  0  0  0  0  0  0  0  0  0
    2.3702    1.2695    0.0000 C   0  0  0  0  0  0  0  0  0  0  0  0
    3.3950    0.1741    0.0000 C   0  0  0  0  0  0  0  0  0  0  0  0
    4.8560    0.5140    0.0000 I   0  0  0  0  0  0  0  0  0  0  0  0
    2.9588   -1.2611    0.0000 C   0  0  0  0  0  0  0  0  0  0  0  0
    1.4978   -1.6009    0.0000 C   0  0  0  0  0  0  0  0  0  0  0  0
   -3.4738   -0.0899    0.0000 C   0  0  0  0  0  0  0  0  0  0  0  0
   -3.9100   -1.5250    0.0000 O   0  0  0  0  0  0  0  0  0  0  0  0
   -4.4986    1.0055    0.0000 O   0  0  0  0  0  0  0  0  0  0  0  0
  2  1  1  6
  2  3  1  0
  3  4  1  0
  4  5  1  0
  5  6  2  0
  6  7  1  0
  7  8  1  0
  7  9  2  0
  9 10  1  0
  2 11  1  0
 11 12  2  0
 11 13  1  0
 10  4  2  0
M  END
>  <rName>  (812) 
D-Phe_4I

>  <PQ_SYMBOL>  (812) 
D-Phe_4I

>  <FULL_NAME>  (812) 
4-iodo-D-phenylalanine

>  <IUPAC_CONDENSED>  (812) 
D-Phe(4-I)

>  <IUPAC>  (812) 
(2R)-2-amino-3-(4-iodophenyl)propanoic acid

>  <TYPE>  (812) 
Backbone

>  <CLASS>  (812) 
alpha

>  <ANALOG>  (812) 
Phe

>  <MOL_WT>  (812) 
291.088

>  <LOGP>  (812) 
1.2456

>  <TPSA>  (812) 
63.32000000000001

>  <POPULARITY>  (812) 
20.5

>  <PROTECTED>  (812) 
TRUE

>  <SMILES>  (812) 
N[C@H](Cc1(ccc(I)cc1))C(=O)O

>  <INCHIKEY>  (812) 
PZNQZSRPDOEBMS-MRVPVSSYSA-N

$$$$
NPhEt-G
     RDKit          2D

 13 13  0  0  0  0  0  0  0  0999 V2000
   -2.0072   -0.3719    0.0000 N   0  0  0  0  0  0  0  0  0  0  0  0
   -0.5884    0.1150    0.0000 C   0  0  0  0  0  0  0  0  0  0  0  0
    0.5426   -0.8703    0.0000 C   0  0  0  0  0  0  0  0  0  0  0  0
    1.9614   -0.3834    0.0000 C   0  0  0  0  0  0  0  0  0  0  0  0
    2.2491    1.0888    0.0000 C   0  0  0  0  0  0  0  0  0  0  0  0
    3.6679    1.5757    0.0000 C   0  0  0  0  0  0  0  0  0  0  0  0
    4.7990    0.5904    0.0000 C   0  0  0  0  0  0  0  0  0  0  0  0
    4.5112   -0.8817    0.0000 C   0  0  0  0  0  0  0  0  0  0  0  0
    3.0925   -1.3686    0.0000 C   0  0  0  0  0  0  0  0  0  0  0  0
   -3.1382    0.6134    0.0000 C   0  0  0  0  0  0  0  0  0  0  0  0
   -4.5570    0.1265    0.0000 C   0  0  0  0  0  0  0  0  0  0  0  0
   -4.8448   -1.3456    0.0000 O   0  0  0  0  0  0  0  0  0  0  0  0
   -5.6881    1.1118    0.0000 O   0  0  0  0  0  0  0  0  0  0  0  0
  1  2  1  0
  2  3  1  0
  3  4  1  0
  4  5  2  0
  5  6  1  0
  6  7  2  0
  7  8  1  0
  8  9  2  0
  1 10  1  0
 10 11  1  0
 11 12  2  0
 11 13  1  0
  9  4  1  0
M  END
>  <rName>  (813) 
NPhEt-G

>  <PQ_SYMBOL>  (813) 
NPhEt-G

>  <FULL_NAME>  (813) 
N-(2-phenylethyl)-glycine

>  <IUPAC_CONDENSED>  (813) 
PhEt-Gly

>  <IUPAC>  (813) 
2-((2-phenylethyl)amino)acetic acid

>  <TYPE>  (813) 
Backbone

>  <CLASS>  (813) 
alpha

>  <ANALOG>  (813) 
Gly

>  <MOL_WT>  (813) 
179.21899999999994

>  <LOGP>  (813) 
0.9033000000000002

>  <TPSA>  (813) 
49.33

>  <POPULARITY>  (813) 
26.6

>  <PROTECTED>  (813) 
TRUE

>  <SMILES>  (813) 
N(CCc1(ccccc1))CC(=O)O

>  <INCHIKEY>  (813) 
UHNMIDKSDRGICN-UHFFFAOYSA-N

$$$$
Phe_4MeOH
     RDKit          2D

 14 14  0  0  0  0  0  0  0  0999 V2000
   -2.0397    1.6757    0.0000 N   0  0  0  0  0  0  0  0  0  0  0  0
   -2.4395    0.2299    0.0000 C   0  0  0  0  0  0  0  0  0  0  0  0
   -1.3873   -0.8392    0.0000 C   0  0  0  0  0  0  0  0  0  0  0  0
    0.0646   -0.4625    0.0000 C   0  0  0  0  0  0  0  0  0  0  0  0
    0.4644    0.9832    0.0000 C   0  0  0  0  0  0  0  0  0  0  0  0
    1.9164    1.3598    0.0000 C   0  0  0  0  0  0  0  0  0  0  0  0
    2.9685    0.2907    0.0000 C   0  0  0  0  0  0  0  0  0  0  0  0
    2.5687   -1.1550    0.0000 C   0  0  0  0  0  0  0  0  0  0  0  0
    1.1168   -1.5316    0.0000 C   0  0  0  0  0  0  0  0  0  0  0  0
    4.4205    0.6674    0.0000 C   0  0  0  0  0  0  0  0  0  0  0  0
    5.4726   -0.4017    0.0000 O   0  0  0  0  0  0  0  0  0  0  0  0
   -3.8914   -0.1467    0.0000 C   0  0  0  0  0  0  0  0  0  0  0  0
   -4.2912   -1.5924    0.0000 O   0  0  0  0  0  0  0  0  0  0  0  0
   -4.9436    0.9224    0.0000 O   0  0  0  0  0  0  0  0  0  0  0  0
  2  1  1  1
  2  3  1  0
  3  4  1  0
  4  5  1  0
  5  6  2  0
  6  7  1  0
  7  8  2  0
  8  9  1  0
  7 10  1  0
 10 11  1  0
  2 12  1  0
 12 13  2  0
 12 14  1  0
  9  4  2  0
M  END
>  <rName>  (814) 
Phe_4MeOH

>  <PQ_SYMBOL>  (814) 
Phe_4MeOH

>  <FULL_NAME>  (814) 
4-(hydroxymethyl)-L-phenylalanine

>  <IUPAC_CONDENSED>  (814) 
Phe(4-MeOH)

>  <IUPAC>  (814) 
(2S)-2-amino-3-(4-(hydroxymethyl)phenyl)propanoic acid

>  <TYPE>  (814) 
Backbone

>  <CLASS>  (814) 
alpha

>  <ANALOG>  (814) 
Phe

>  <MOL_WT>  (814) 
195.21799999999996

>  <LOGP>  (814) 
0.13329999999999997

>  <TPSA>  (814) 
83.55

>  <POPULARITY>  (814) 
5.9

>  <PROTECTED>  (814) 
TRUE

>  <SMILES>  (814) 
N[C@@H](Cc1(ccc(cc1)CO))C(=O)O

>  <INCHIKEY>  (814) 
OXNUZCWFCJRJSU-VIFPVBQESA-N

$$$$
Phe_2F
     RDKit          2D

 13 13  0  0  0  0  0  0  0  0999 V2000
   -1.4864    1.8099    0.0000 N   0  0  0  0  0  0  0  0  0  0  0  0
   -1.7669    0.3364    0.0000 C   0  0  0  0  0  0  0  0  0  0  0  0
   -0.6311   -0.6433    0.0000 C   0  0  0  0  0  0  0  0  0  0  0  0
    0.7853   -0.1495    0.0000 C   0  0  0  0  0  0  0  0  0  0  0  0
    1.0658    1.3241    0.0000 C   0  0  0  0  0  0  0  0  0  0  0  0
    2.4822    1.8179    0.0000 C   0  0  0  0  0  0  0  0  0  0  0  0
    3.6181    0.8382    0.0000 C   0  0  0  0  0  0  0  0  0  0  0  0
    3.3376   -0.6353    0.0000 C   0  0  0  0  0  0  0  0  0  0  0  0
    1.9212   -1.1292    0.0000 C   0  0  0  0  0  0  0  0  0  0  0  0
    1.6407   -2.6027    0.0000 F   0  0  0  0  0  0  0  0  0  0  0  0
   -3.1833   -0.1575    0.0000 C   0  0  0  0  0  0  0  0  0  0  0  0
   -3.4638   -1.6310    0.0000 O   0  0  0  0  0  0  0  0  0  0  0  0
   -4.3192    0.8222    0.0000 O   0  0  0  0  0  0  0  0  0  0  0  0
  2  1  1  1
  2  3  1  0
  3  4  1  0
  4  5  2  0
  5  6  1  0
  6  7  2  0
  7  8  1  0
  8  9  2  0
  9 10  1  0
  2 11  1  0
 11 12  2  0
 11 13  1  0
  9  4  1  0
M  END
>  <rName>  (815) 
Phe_2F

>  <PQ_SYMBOL>  (815) 
Phe_2F

>  <FULL_NAME>  (815) 
2-fluoro-L-phenylalanine

>  <IUPAC_CONDENSED>  (815) 
Phe(2-F)

>  <IUPAC>  (815) 
(2S)-2-amino-3-(2-fluorophenyl)propanoic acid

>  <TYPE>  (815) 
Backbone

>  <CLASS>  (815) 
alpha

>  <ANALOG>  (815) 
Phe

>  <MOL_WT>  (815) 
183.18199999999996

>  <LOGP>  (815) 
0.7801000000000002

>  <TPSA>  (815) 
63.32000000000001

>  <POPULARITY>  (815) 
16.3

>  <PROTECTED>  (815) 
TRUE

>  <SMILES>  (815) 
N[C@@H](Cc1(ccccc1F))C(=O)O

>  <INCHIKEY>  (815) 
NYCRCTMDYITATC-QMMMGPOBSA-N

$$$$
Phe_3F
     RDKit          2D

 13 13  0  0  0  0  0  0  0  0999 V2000
   -1.7680    1.6690    0.0000 N   0  0  0  0  0  0  0  0  0  0  0  0
   -1.9932    0.1860    0.0000 C   0  0  0  0  0  0  0  0  0  0  0  0
   -0.8215   -0.7506    0.0000 C   0  0  0  0  0  0  0  0  0  0  0  0
    0.5754   -0.2041    0.0000 C   0  0  0  0  0  0  0  0  0  0  0  0
    0.8006    1.2789    0.0000 C   0  0  0  0  0  0  0  0  0  0  0  0
    2.1976    1.8254    0.0000 C   0  0  0  0  0  0  0  0  0  0  0  0
    3.3693    0.8888    0.0000 C   0  0  0  0  0  0  0  0  0  0  0  0
    3.1441   -0.5942    0.0000 C   0  0  0  0  0  0  0  0  0  0  0  0
    4.3158   -1.5307    0.0000 F   0  0  0  0  0  0  0  0  0  0  0  0
    1.7472   -1.1406    0.0000 C   0  0  0  0  0  0  0  0  0  0  0  0
   -3.3901   -0.3605    0.0000 C   0  0  0  0  0  0  0  0  0  0  0  0
   -3.6153   -1.8435    0.0000 O   0  0  0  0  0  0  0  0  0  0  0  0
   -4.5618    0.5760    0.0000 O   0  0  0  0  0  0  0  0  0  0  0  0
  2  1  1  1
  2  3  1  0
  3  4  1  0
  4  5  2  0
  5  6  1  0
  6  7  2  0
  7  8  1  0
  8  9  1  0
  8 10  2  0
  2 11  1  0
 11 12  2  0
 11 13  1  0
 10  4  1  0
M  END
>  <rName>  (816) 
Phe_3F

>  <PQ_SYMBOL>  (816) 
Phe_3F

>  <FULL_NAME>  (816) 
3-fluoro-L-phenylalanine

>  <IUPAC_CONDENSED>  (816) 
Phe(3-F)

>  <IUPAC>  (816) 
(2S)-2-amino-3-(3-fluorophenyl)propanoic acid

>  <TYPE>  (816) 
Backbone

>  <CLASS>  (816) 
alpha

>  <ANALOG>  (816) 
Phe

>  <MOL_WT>  (816) 
183.182

>  <LOGP>  (816) 
0.7801000000000002

>  <TPSA>  (816) 
63.32000000000001

>  <POPULARITY>  (816) 
20.3

>  <PROTECTED>  (816) 
TRUE

>  <SMILES>  (816) 
N[C@@H](Cc1(cccc(F)c1))C(=O)O

>  <INCHIKEY>  (816) 
VWHRYODZTDMVSS-QMMMGPOBSA-N

$$$$
Cys_Me
     RDKit          2D

  8  7  0  0  0  0  0  0  0  0999 V2000
   -0.2517   -1.8862    0.0000 N   0  0  0  0  0  0  0  0  0  0  0  0
   -0.3100   -0.3873    0.0000 C   0  0  0  0  0  0  0  0  0  0  0  0
    0.9590    0.4126    0.0000 C   0  0  0  0  0  0  0  0  0  0  0  0
    2.2862   -0.2864    0.0000 S   0  0  0  0  0  0  0  0  0  0  0  0
    3.5551    0.5134    0.0000 C   0  0  0  0  0  0  0  0  0  0  0  0
   -1.6371    0.3117    0.0000 C   0  0  0  0  0  0  0  0  0  0  0  0
   -1.6954    1.8105    0.0000 O   0  0  0  0  0  0  0  0  0  0  0  0
   -2.9061   -0.4882    0.0000 O   0  0  0  0  0  0  0  0  0  0  0  0
  2  1  1  6
  2  3  1  0
  3  4  1  0
  4  5  1  0
  2  6  1  0
  6  7  2  0
  6  8  1  0
M  END
>  <rName>  (817) 
Cys_Me

>  <PQ_SYMBOL>  (817) 
Cys_Me

>  <FULL_NAME>  (817) 
S-methyl-L-cysteine

>  <IUPAC_CONDENSED>  (817) 
Cys(Me)

>  <IUPAC>  (817) 
(2R)-2-amino-3-(methylsulfanyl)propanoic acid

>  <TYPE>  (817) 
Backbone

>  <CLASS>  (817) 
alpha

>  <ANALOG>  (817) 
Cys

>  <MOL_WT>  (817) 
135.188

>  <LOGP>  (817) 
-0.2387000000000002

>  <TPSA>  (817) 
63.32000000000001

>  <POPULARITY>  (817) 
43.6

>  <PROTECTED>  (817) 
TRUE

>  <SMILES>  (817) 
N[C@@H](CSC)C(=O)O

>  <INCHIKEY>  (817) 
IDIDJDIHTAOVLG-VKHMYHEASA-N

$$$$
D-Phe_2CF3
     RDKit          2D

 16 16  0  0  0  0  0  0  0  0999 V2000
   -2.2776    1.9185    0.0000 N   0  0  0  0  0  0  0  0  0  0  0  0
   -2.2125    0.4199    0.0000 C   0  0  0  0  0  0  0  0  0  0  0  0
   -0.8821   -0.2730    0.0000 C   0  0  0  0  0  0  0  0  0  0  0  0
    0.3832    0.5328    0.0000 C   0  0  0  0  0  0  0  0  0  0  0  0
    0.3180    2.0314    0.0000 C   0  0  0  0  0  0  0  0  0  0  0  0
    1.5832    2.8371    0.0000 C   0  0  0  0  0  0  0  0  0  0  0  0
    2.9136    2.1443    0.0000 C   0  0  0  0  0  0  0  0  0  0  0  0
    2.9788    0.6457    0.0000 C   0  0  0  0  0  0  0  0  0  0  0  0
    1.7136   -0.1601    0.0000 C   0  0  0  0  0  0  0  0  0  0  0  0
    1.7787   -1.6586    0.0000 C   0  0  0  0  0  0  0  0  0  0  0  0
    1.8439   -3.1572    0.0000 F   0  0  0  0  0  0  0  0  0  0  0  0
    3.2773   -1.5935    0.0000 F   0  0  0  0  0  0  0  0  0  0  0  0
    0.2802   -1.7238    0.0000 F   0  0  0  0  0  0  0  0  0  0  0  0
   -3.4777   -0.3859    0.0000 C   0  0  0  0  0  0  0  0  0  0  0  0
   -3.4125   -1.8845    0.0000 O   0  0  0  0  0  0  0  0  0  0  0  0
   -4.8081    0.3070    0.0000 O   0  0  0  0  0  0  0  0  0  0  0  0
  2  1  1  6
  2  3  1  0
  3  4  1  0
  4  5  2  0
  5  6  1  0
  6  7  2  0
  7  8  1  0
  8  9  2  0
  9 10  1  0
 10 11  1  0
 10 12  1  0
 10 13  1  0
  2 14  1  0
 14 15  2  0
 14 16  1  0
  9  4  1  0
M  END
>  <rName>  (818) 
D-Phe_2CF3

>  <PQ_SYMBOL>  (818) 
D-Phe_2CF3

>  <FULL_NAME>  (818) 
2-(trifluoromethyl)-D-phenylalanine

>  <IUPAC_CONDENSED>  (818) 
D-Phe(2-CF3)

>  <IUPAC>  (818) 
(2R)-2-amino-3-(2-(trifluoromethyl)phenyl)propanoic acid

>  <TYPE>  (818) 
Backbone

>  <CLASS>  (818) 
alpha

>  <ANALOG>  (818) 
Phe

>  <MOL_WT>  (818) 
233.18899999999994

>  <LOGP>  (818) 
1.6598000000000002

>  <TPSA>  (818) 
63.32000000000001

>  <POPULARITY>  (818) 
12.6

>  <PROTECTED>  (818) 
TRUE

>  <SMILES>  (818) 
N[C@H](Cc1(ccccc1C(F)(F)F))C(=O)O

>  <INCHIKEY>  (818) 
IOABLDGLYOGEHY-MRVPVSSYSA-N

$$$$
D-Phe_4F
     RDKit          2D

 13 13  0  0  0  0  0  0  0  0999 V2000
   -1.5766    1.6851    0.0000 N   0  0  0  0  0  0  0  0  0  0  0  0
   -2.0128    0.2500    0.0000 C   0  0  0  0  0  0  0  0  0  0  0  0
   -0.9880   -0.8454    0.0000 C   0  0  0  0  0  0  0  0  0  0  0  0
    0.4730   -0.5055    0.0000 C   0  0  0  0  0  0  0  0  0  0  0  0
    0.9092    0.9296    0.0000 C   0  0  0  0  0  0  0  0  0  0  0  0
    2.3702    1.2695    0.0000 C   0  0  0  0  0  0  0  0  0  0  0  0
    3.3950    0.1741    0.0000 C   0  0  0  0  0  0  0  0  0  0  0  0
    4.8560    0.5140    0.0000 F   0  0  0  0  0  0  0  0  0  0  0  0
    2.9588   -1.2611    0.0000 C   0  0  0  0  0  0  0  0  0  0  0  0
    1.4978   -1.6009    0.0000 C   0  0  0  0  0  0  0  0  0  0  0  0
   -3.4738   -0.0899    0.0000 C   0  0  0  0  0  0  0  0  0  0  0  0
   -3.9100   -1.5250    0.0000 O   0  0  0  0  0  0  0  0  0  0  0  0
   -4.4986    1.0055    0.0000 O   0  0  0  0  0  0  0  0  0  0  0  0
  2  1  1  6
  2  3  1  0
  3  4  1  0
  4  5  1  0
  5  6  2  0
  6  7  1  0
  7  8  1  0
  7  9  2  0
  9 10  1  0
  2 11  1  0
 11 12  2  0
 11 13  1  0
 10  4  2  0
M  END
>  <rName>  (819) 
D-Phe_4F

>  <PQ_SYMBOL>  (819) 
D-Phe_4F

>  <FULL_NAME>  (819) 
4-fluoro-D-phenylalanine

>  <IUPAC_CONDENSED>  (819) 
D-Phe(4-F)

>  <IUPAC>  (819) 
(2R)-2-amino-3-(4-fluorophenyl)propanoic acid

>  <TYPE>  (819) 
Backbone

>  <CLASS>  (819) 
alpha

>  <ANALOG>  (819) 
Phe

>  <MOL_WT>  (819) 
183.182

>  <LOGP>  (819) 
0.7801

>  <TPSA>  (819) 
63.32000000000001

>  <POPULARITY>  (819) 
21.8

>  <PROTECTED>  (819) 
TRUE

>  <SMILES>  (819) 
N[C@H](Cc1(ccc(F)cc1))C(=O)O

>  <INCHIKEY>  (819) 
XWHHYOYVRVGJJY-MRVPVSSYSA-N

$$$$
D-Phe_24diCl
     RDKit          2D

 14 14  0  0  0  0  0  0  0  0999 V2000
   -1.7174    1.8436    0.0000 N   0  0  0  0  0  0  0  0  0  0  0  0
   -2.1036    0.3942    0.0000 C   0  0  0  0  0  0  0  0  0  0  0  0
   -1.0414   -0.6650    0.0000 C   0  0  0  0  0  0  0  0  0  0  0  0
    0.4069   -0.2747    0.0000 C   0  0  0  0  0  0  0  0  0  0  0  0
    0.7931    1.1747    0.0000 C   0  0  0  0  0  0  0  0  0  0  0  0
    2.2415    1.5649    0.0000 C   0  0  0  0  0  0  0  0  0  0  0  0
    3.3036    0.5057    0.0000 C   0  0  0  0  0  0  0  0  0  0  0  0
    4.7520    0.8960    0.0000 Cl  0  0  0  0  0  0  0  0  0  0  0  0
    2.9174   -0.9437    0.0000 C   0  0  0  0  0  0  0  0  0  0  0  0
    1.4691   -1.3339    0.0000 C   0  0  0  0  0  0  0  0  0  0  0  0
    1.0829   -2.7834    0.0000 Cl  0  0  0  0  0  0  0  0  0  0  0  0
   -3.5519    0.0039    0.0000 C   0  0  0  0  0  0  0  0  0  0  0  0
   -3.9381   -1.4455    0.0000 O   0  0  0  0  0  0  0  0  0  0  0  0
   -4.6140    1.0631    0.0000 O   0  0  0  0  0  0  0  0  0  0  0  0
  2  1  1  6
  2  3  1  0
  3  4  1  0
  4  5  1  0
  5  6  2  0
  6  7  1  0
  7  8  1  0
  7  9  2  0
  9 10  1  0
 10 11  1  0
  2 12  1  0
 12 13  2  0
 12 14  1  0
 10  4  2  0
M  END
>  <rName>  (820) 
D-Phe_24diCl

>  <PQ_SYMBOL>  (820) 
D-Phe_24diCl

>  <FULL_NAME>  (820) 
2,4-dichloro-D-phenylalanine

>  <IUPAC_CONDENSED>  (820) 
D-Phe(2,4-diCl)

>  <IUPAC>  (820) 
(2R)-2-amino-3-(2,4-dichlorophenyl)propanoic acid

>  <TYPE>  (820) 
Backbone

>  <CLASS>  (820) 
alpha

>  <ANALOG>  (820) 
Phe

>  <MOL_WT>  (820) 
234.082

>  <LOGP>  (820) 
1.9478000000000002

>  <TPSA>  (820) 
63.32000000000001

>  <POPULARITY>  (820) 
10.9

>  <PROTECTED>  (820) 
TRUE

>  <SMILES>  (820) 
N[C@H](Cc1(ccc(Cl)cc1Cl))C(=O)O

>  <INCHIKEY>  (820) 
GWHQTNKPTXDNRM-MRVPVSSYSA-N

$$$$
D-Phe_3F
     RDKit          2D

 13 13  0  0  0  0  0  0  0  0999 V2000
   -1.7680    1.6690    0.0000 N   0  0  0  0  0  0  0  0  0  0  0  0
   -1.9932    0.1860    0.0000 C   0  0  0  0  0  0  0  0  0  0  0  0
   -0.8215   -0.7506    0.0000 C   0  0  0  0  0  0  0  0  0  0  0  0
    0.5754   -0.2041    0.0000 C   0  0  0  0  0  0  0  0  0  0  0  0
    0.8006    1.2789    0.0000 C   0  0  0  0  0  0  0  0  0  0  0  0
    2.1976    1.8254    0.0000 C   0  0  0  0  0  0  0  0  0  0  0  0
    3.3693    0.8888    0.0000 C   0  0  0  0  0  0  0  0  0  0  0  0
    3.1441   -0.5942    0.0000 C   0  0  0  0  0  0  0  0  0  0  0  0
    4.3158   -1.5307    0.0000 F   0  0  0  0  0  0  0  0  0  0  0  0
    1.7472   -1.1406    0.0000 C   0  0  0  0  0  0  0  0  0  0  0  0
   -3.3901   -0.3605    0.0000 C   0  0  0  0  0  0  0  0  0  0  0  0
   -3.6153   -1.8435    0.0000 O   0  0  0  0  0  0  0  0  0  0  0  0
   -4.5618    0.5760    0.0000 O   0  0  0  0  0  0  0  0  0  0  0  0
  2  1  1  6
  2  3  1  0
  3  4  1  0
  4  5  2  0
  5  6  1  0
  6  7  2  0
  7  8  1  0
  8  9  1  0
  8 10  2  0
  2 11  1  0
 11 12  2  0
 11 13  1  0
 10  4  1  0
M  END
>  <rName>  (821) 
D-Phe_3F

>  <PQ_SYMBOL>  (821) 
D-Phe_3F

>  <FULL_NAME>  (821) 
3-fluoro-D-phenylalanine

>  <IUPAC_CONDENSED>  (821) 
D-Phe(3-F)

>  <IUPAC>  (821) 
(2R)-2-amino-3-(3-fluorophenyl)propanoic acid

>  <TYPE>  (821) 
Backbone

>  <CLASS>  (821) 
alpha

>  <ANALOG>  (821) 
Phe

>  <MOL_WT>  (821) 
183.182

>  <LOGP>  (821) 
0.7801000000000002

>  <TPSA>  (821) 
63.32000000000001

>  <POPULARITY>  (821) 
13.3

>  <PROTECTED>  (821) 
TRUE

>  <SMILES>  (821) 
N[C@H](Cc1(cccc(F)c1))C(=O)O

>  <INCHIKEY>  (821) 
VWHRYODZTDMVSS-MRVPVSSYSA-N

$$$$
D-Phe_4CF3
     RDKit          2D

 16 16  0  0  0  0  0  0  0  0999 V2000
   -2.5021    1.6866    0.0000 N   0  0  0  0  0  0  0  0  0  0  0  0
   -3.0051    0.2735    0.0000 C   0  0  0  0  0  0  0  0  0  0  0  0
   -2.0328   -0.8687    0.0000 C   0  0  0  0  0  0  0  0  0  0  0  0
   -0.5574   -0.5977    0.0000 C   0  0  0  0  0  0  0  0  0  0  0  0
   -0.0545    0.8155    0.0000 C   0  0  0  0  0  0  0  0  0  0  0  0
    1.4208    1.0865    0.0000 C   0  0  0  0  0  0  0  0  0  0  0  0
    2.3932   -0.0557    0.0000 C   0  0  0  0  0  0  0  0  0  0  0  0
    1.8902   -1.4688    0.0000 C   0  0  0  0  0  0  0  0  0  0  0  0
    0.4149   -1.7398    0.0000 C   0  0  0  0  0  0  0  0  0  0  0  0
    3.8685    0.2153    0.0000 C   0  0  0  0  0  0  0  0  0  0  0  0
    5.3438    0.4863    0.0000 F   0  0  0  0  0  0  0  0  0  0  0  0
    4.1395   -1.2600    0.0000 F   0  0  0  0  0  0  0  0  0  0  0  0
    3.5975    1.6906    0.0000 F   0  0  0  0  0  0  0  0  0  0  0  0
   -4.4804    0.0025    0.0000 C   0  0  0  0  0  0  0  0  0  0  0  0
   -4.9834   -1.4107    0.0000 O   0  0  0  0  0  0  0  0  0  0  0  0
   -5.4528    1.1446    0.0000 O   0  0  0  0  0  0  0  0  0  0  0  0
  2  1  1  6
  2  3  1  0
  3  4  1  0
  4  5  1  0
  5  6  2  0
  6  7  1  0
  7  8  2  0
  8  9  1  0
  7 10  1  0
 10 11  1  0
 10 12  1  0
 10 13  1  0
  2 14  1  0
 14 15  2  0
 14 16  1  0
  9  4  2  0
M  END
>  <rName>  (822) 
D-Phe_4CF3

>  <PQ_SYMBOL>  (822) 
D-Phe_4CF3

>  <FULL_NAME>  (822) 
4-(trifluoromethyl)-D-phenylalanine

>  <IUPAC_CONDENSED>  (822) 
D-Phe(4-CF3)

>  <IUPAC>  (822) 
(2R)-2-amino-3-(4-(trifluoromethyl)phenyl)propanoic acid

>  <TYPE>  (822) 
Backbone

>  <CLASS>  (822) 
alpha

>  <ANALOG>  (822) 
Phe

>  <MOL_WT>  (822) 
233.18899999999994

>  <LOGP>  (822) 
1.6598000000000002

>  <TPSA>  (822) 
63.32000000000001

>  <POPULARITY>  (822) 
17.4

>  <PROTECTED>  (822) 
TRUE

>  <SMILES>  (822) 
N[C@H](Cc1(ccc(cc1)C(F)(F)F))C(=O)O

>  <INCHIKEY>  (822) 
CRFFPDBJLGAGQL-MRVPVSSYSA-N

$$$$
D-Phe_34_5triF
     RDKit          2D

 15 15  0  0  0  0  0  0  0  0999 V2000
   -2.0609    1.6226    0.0000 N   0  0  0  0  0  0  0  0  0  0  0  0
   -2.4694    0.1793    0.0000 C   0  0  0  0  0  0  0  0  0  0  0  0
   -1.4237   -0.8961    0.0000 C   0  0  0  0  0  0  0  0  0  0  0  0
    0.0305   -0.5283    0.0000 C   0  0  0  0  0  0  0  0  0  0  0  0
    0.4390    0.9150    0.0000 C   0  0  0  0  0  0  0  0  0  0  0  0
    1.8932    1.2829    0.0000 C   0  0  0  0  0  0  0  0  0  0  0  0
    2.3017    2.7262    0.0000 F   0  0  0  0  0  0  0  0  0  0  0  0
    2.9389    0.2075    0.0000 C   0  0  0  0  0  0  0  0  0  0  0  0
    4.3931    0.5753    0.0000 F   0  0  0  0  0  0  0  0  0  0  0  0
    2.5304   -1.2358    0.0000 C   0  0  0  0  0  0  0  0  0  0  0  0
    3.5760   -2.3113    0.0000 F   0  0  0  0  0  0  0  0  0  0  0  0
    1.0762   -1.6037    0.0000 C   0  0  0  0  0  0  0  0  0  0  0  0
   -3.9236   -0.1886    0.0000 C   0  0  0  0  0  0  0  0  0  0  0  0
   -4.3321   -1.6319    0.0000 O   0  0  0  0  0  0  0  0  0  0  0  0
   -4.9693    0.8868    0.0000 O   0  0  0  0  0  0  0  0  0  0  0  0
  2  1  1  6
  2  3  1  0
  3  4  1  0
  4  5  2  0
  5  6  1  0
  6  7  1  0
  6  8  2  0
  8  9  1  0
  8 10  1  0
 10 11  1  0
 10 12  2  0
  2 13  1  0
 13 14  2  0
 13 15  1  0
 12  4  1  0
M  END
>  <rName>  (823) 
D-Phe_34_5triF

>  <PQ_SYMBOL>  (823) 
D-Phe_34_5triF

>  <FULL_NAME>  (823) 
3,4,5-trifluoro-D-phenylalanine

>  <IUPAC_CONDENSED>  (823) 
D-Phe(3,4,5-triF)

>  <IUPAC>  (823) 
(2R)-2-amino-3-(3,4,5-trifluorophenyl)propanoic acid

>  <TYPE>  (823) 
Backbone

>  <CLASS>  (823) 
alpha

>  <ANALOG>  (823) 
Phe

>  <MOL_WT>  (823) 
219.16199999999998

>  <LOGP>  (823) 
1.0583000000000002

>  <TPSA>  (823) 
63.32000000000001

>  <POPULARITY>  (823) 
11.6

>  <PROTECTED>  (823) 
TRUE

>  <SMILES>  (823) 
N[C@H](Cc1(cc(F)c(F)c(F)c1))C(=O)O

>  <INCHIKEY>  (823) 
SFKCVRLOYOHGFK-SSDOTTSWSA-N

$$$$
NMe-indolGly
     RDKit          2D

 15 16  0  0  0  0  0  0  0  0999 V2000
   -2.2153   -0.0185    0.0000 N   0  0  0  0  0  0  0  0  0  0  0  0
   -0.8594    0.6231    0.0000 C   0  0  0  0  0  0  0  0  0  0  0  0
    0.3742   -0.2304    0.0000 C   0  0  0  0  0  0  0  0  0  0  0  0
    0.4088   -1.7300    0.0000 C   0  0  0  0  0  0  0  0  0  0  0  0
    1.8457   -2.1604    0.0000 N   0  0  0  0  0  0  0  0  0  0  0  0
    2.6991   -0.9269    0.0000 C   0  0  0  0  0  0  0  0  0  0  0  0
    4.1869   -0.7357    0.0000 C   0  0  0  0  0  0  0  0  0  0  0  0
    4.7652    0.6484    0.0000 C   0  0  0  0  0  0  0  0  0  0  0  0
    3.8557    1.8412    0.0000 C   0  0  0  0  0  0  0  0  0  0  0  0
    2.3680    1.6500    0.0000 C   0  0  0  0  0  0  0  0  0  0  0  0
    1.7897    0.2660    0.0000 C   0  0  0  0  0  0  0  0  0  0  0  0
   -3.4488    0.8349    0.0000 C   0  0  0  0  0  0  0  0  0  0  0  0
   -4.8047    0.1933    0.0000 C   0  0  0  0  0  0  0  0  0  0  0  0
   -4.9270   -1.3017    0.0000 O   0  0  0  0  0  0  0  0  0  0  0  0
   -6.0382    1.0467    0.0000 O   0  0  0  0  0  0  0  0  0  0  0  0
  1  2  1  0
  2  3  1  0
  3  4  2  0
  4  5  1  0
  5  6  1  0
  6  7  2  0
  7  8  1  0
  8  9  2  0
  9 10  1  0
 10 11  2  0
  1 12  1  0
 12 13  1  0
 13 14  2  0
 13 15  1  0
 11  3  1  0
 11  6  1  0
M  END
>  <rName>  (824) 
NMe-indolGly

>  <PQ_SYMBOL>  (824) 
NMe-indolGly

>  <FULL_NAME>  (824) 
N-(1H-indol-3-ylmethyl)-glycine

>  <IUPAC_CONDENSED>  (824) 
N(Me-indol)Gly

>  <IUPAC>  (824) 
2-(((1H-indol-3-yl)methyl)amino)acetic acid

>  <TYPE>  (824) 
Backbone

>  <CLASS>  (824) 
alpha

>  <ANALOG>  (824) 
Gly

>  <MOL_WT>  (824) 
204.22899999999996

>  <LOGP>  (824) 
1.3421

>  <TPSA>  (824) 
65.12

>  <POPULARITY>  (824) 
13.2

>  <PROTECTED>  (824) 
TRUE

>  <SMILES>  (824) 
N(Cc1(c[nH]c2(ccccc12)))CC(=O)O

>  <INCHIKEY>  (824) 
WIRBGPCBAWTAJW-UHFFFAOYSA-N

$$$$
NEt-indolGly
     RDKit          2D

 16 17  0  0  0  0  0  0  0  0999 V2000
   -2.9678    0.2672    0.0000 N   0  0  0  0  0  0  0  0  0  0  0  0
   -1.6534   -0.4555    0.0000 C   0  0  0  0  0  0  0  0  0  0  0  0
   -0.3702    0.3213    0.0000 C   0  0  0  0  0  0  0  0  0  0  0  0
    0.9441   -0.4015    0.0000 C   0  0  0  0  0  0  0  0  0  0  0  0
    1.1319   -1.8896    0.0000 C   0  0  0  0  0  0  0  0  0  0  0  0
    2.6053   -2.1709    0.0000 N   0  0  0  0  0  0  0  0  0  0  0  0
    3.3281   -0.8565    0.0000 C   0  0  0  0  0  0  0  0  0  0  0  0
    4.7885   -0.5142    0.0000 C   0  0  0  0  0  0  0  0  0  0  0  0
    5.2223    0.9217    0.0000 C   0  0  0  0  0  0  0  0  0  0  0  0
    4.1956    2.0153    0.0000 C   0  0  0  0  0  0  0  0  0  0  0  0
    2.7352    1.6730    0.0000 C   0  0  0  0  0  0  0  0  0  0  0  0
    2.3014    0.2370    0.0000 C   0  0  0  0  0  0  0  0  0  0  0  0
   -4.2509   -0.5096    0.0000 C   0  0  0  0  0  0  0  0  0  0  0  0
   -5.5653    0.2131    0.0000 C   0  0  0  0  0  0  0  0  0  0  0  0
   -5.5965    1.7128    0.0000 O   0  0  0  0  0  0  0  0  0  0  0  0
   -6.8484   -0.5637    0.0000 O   0  0  0  0  0  0  0  0  0  0  0  0
  1  2  1  0
  2  3  1  0
  3  4  1  0
  4  5  2  0
  5  6  1  0
  6  7  1  0
  7  8  2  0
  8  9  1  0
  9 10  2  0
 10 11  1  0
 11 12  2  0
  1 13  1  0
 13 14  1  0
 14 15  2  0
 14 16  1  0
 12  4  1  0
 12  7  1  0
M  END
>  <rName>  (825) 
NEt-indolGly

>  <PQ_SYMBOL>  (825) 
NEt-indolGly

>  <FULL_NAME>  (825) 
N-[2-(1H-indol-3-yl)ethyl]glycine

>  <IUPAC_CONDENSED>  (825) 
N(Et-indol)Gly

>  <IUPAC>  (825) 
2-((2-(1H-indol-3-yl)ethyl)amino)acetic acid

>  <TYPE>  (825) 
Backbone

>  <CLASS>  (825) 
alpha

>  <ANALOG>  (825) 
Gly

>  <MOL_WT>  (825) 
218.25599999999997

>  <LOGP>  (825) 
1.3846000000000003

>  <TPSA>  (825) 
65.12

>  <POPULARITY>  (825) 
18

>  <PROTECTED>  (825) 
TRUE

>  <SMILES>  (825) 
N(CCc1(c[nH]c2(ccccc12)))CC(=O)O

>  <INCHIKEY>  (825) 
DPSHLVRITCJXMK-UHFFFAOYSA-N

$$$$
NBu-G
     RDKit          2D

  9  8  0  0  0  0  0  0  0  0999 V2000
   -0.2960    0.1534    0.0000 N   0  0  0  0  0  0  0  0  0  0  0  0
    1.0358   -0.5368    0.0000 C   0  0  0  0  0  0  0  0  0  0  0  0
    2.2994    0.2714    0.0000 C   0  0  0  0  0  0  0  0  0  0  0  0
    3.6312   -0.4188    0.0000 C   0  0  0  0  0  0  0  0  0  0  0  0
    4.8948    0.3895    0.0000 C   0  0  0  0  0  0  0  0  0  0  0  0
   -1.5596   -0.6549    0.0000 C   0  0  0  0  0  0  0  0  0  0  0  0
   -2.8913    0.0353    0.0000 C   0  0  0  0  0  0  0  0  0  0  0  0
   -2.9595    1.5338    0.0000 O   0  0  0  0  0  0  0  0  0  0  0  0
   -4.1550   -0.7729    0.0000 O   0  0  0  0  0  0  0  0  0  0  0  0
  1  2  1  0
  2  3  1  0
  3  4  1  0
  4  5  1  0
  1  6  1  0
  6  7  1  0
  7  8  2  0
  7  9  1  0
M  END
>  <rName>  (826) 
NBu-G

>  <PQ_SYMBOL>  (826) 
NBu-G

>  <FULL_NAME>  (826) 
N-butylglycine

>  <IUPAC_CONDENSED>  (826) 
Bu-Gly

>  <IUPAC>  (826) 
2-(butylamino)acetic acid

>  <TYPE>  (826) 
Backbone

>  <CLASS>  (826) 
alpha

>  <ANALOG>  (826) 
Gly

>  <MOL_WT>  (826) 
131.175

>  <LOGP>  (826) 
0.46069999999999983

>  <TPSA>  (826) 
49.33

>  <POPULARITY>  (826) 
25.6

>  <PROTECTED>  (826) 
TRUE

>  <SMILES>  (826) 
N(CCCC)CC(=O)O

>  <INCHIKEY>  (826) 
RRWZZMHRVSMLCT-UHFFFAOYSA-N

$$$$
Dab_Ac
     RDKit          2D

 11 10  0  0  0  0  0  0  0  0999 V2000
   -1.6269   -1.8430    0.0000 N   0  0  0  0  0  0  0  0  0  0  0  0
   -1.7489   -0.3480    0.0000 C   0  0  0  0  0  0  0  0  0  0  0  0
   -0.5152    0.5052    0.0000 C   0  0  0  0  0  0  0  0  0  0  0  0
    0.8406   -0.1366    0.0000 C   0  0  0  0  0  0  0  0  0  0  0  0
    2.0743    0.7166    0.0000 N   0  0  0  0  0  0  0  0  0  0  0  0
    3.4300    0.0748    0.0000 C   0  0  0  0  0  0  0  0  0  0  0  0
    3.5521   -1.4203    0.0000 O   0  0  0  0  0  0  0  0  0  0  0  0
    4.6637    0.9280    0.0000 C   0  0  0  0  0  0  0  0  0  0  0  0
   -3.1047    0.2938    0.0000 C   0  0  0  0  0  0  0  0  0  0  0  0
   -3.2267    1.7889    0.0000 O   0  0  0  0  0  0  0  0  0  0  0  0
   -4.3384   -0.5594    0.0000 O   0  0  0  0  0  0  0  0  0  0  0  0
  2  1  1  6
  2  3  1  0
  3  4  1  0
  4  5  1  0
  5  6  1  0
  6  7  2  0
  6  8  1  0
  2  9  1  0
  9 10  2  0
  9 11  1  0
M  END
>  <rName>  (827) 
Dab_Ac

>  <PQ_SYMBOL>  (827) 
Dab_Ac

>  <FULL_NAME>  (827) 
(2S)-4-acetamido-2-aminobutanoic acid

>  <IUPAC_CONDENSED>  (827) 
Dab(Ac)

>  <IUPAC>  (827) 
(2S)-2-amino-4-methylcarbonylaminobutanoic acid

>  <TYPE>  (827) 
Backbone

>  <CLASS>  (827) 
alpha

>  <ANALOG>  (827) 
X

>  <MOL_WT>  (827) 
160.17299999999997

>  <LOGP>  (827) 
-1.0755

>  <TPSA>  (827) 
92.42

>  <POPULARITY>  (827) 
11.1

>  <PROTECTED>  (827) 
TRUE

>  <SMILES>  (827) 
N[C@@H](CCNC(=O)C)C(=O)O

>  <INCHIKEY>  (827) 
YLZRFVZUZIJABA-YFKPBYRVSA-N

$$$$
D-Phe_2Cl
     RDKit          2D

 13 13  0  0  0  0  0  0  0  0999 V2000
   -1.4864    1.8099    0.0000 N   0  0  0  0  0  0  0  0  0  0  0  0
   -1.7669    0.3364    0.0000 C   0  0  0  0  0  0  0  0  0  0  0  0
   -0.6311   -0.6433    0.0000 C   0  0  0  0  0  0  0  0  0  0  0  0
    0.7853   -0.1495    0.0000 C   0  0  0  0  0  0  0  0  0  0  0  0
    1.0658    1.3241    0.0000 C   0  0  0  0  0  0  0  0  0  0  0  0
    2.4822    1.8179    0.0000 C   0  0  0  0  0  0  0  0  0  0  0  0
    3.6181    0.8382    0.0000 C   0  0  0  0  0  0  0  0  0  0  0  0
    3.3376   -0.6353    0.0000 C   0  0  0  0  0  0  0  0  0  0  0  0
    1.9212   -1.1292    0.0000 C   0  0  0  0  0  0  0  0  0  0  0  0
    1.6407   -2.6027    0.0000 Cl  0  0  0  0  0  0  0  0  0  0  0  0
   -3.1833   -0.1575    0.0000 C   0  0  0  0  0  0  0  0  0  0  0  0
   -3.4638   -1.6310    0.0000 O   0  0  0  0  0  0  0  0  0  0  0  0
   -4.3192    0.8222    0.0000 O   0  0  0  0  0  0  0  0  0  0  0  0
  2  1  1  6
  2  3  1  0
  3  4  1  0
  4  5  2  0
  5  6  1  0
  6  7  2  0
  7  8  1  0
  8  9  2  0
  9 10  1  0
  2 11  1  0
 11 12  2  0
 11 13  1  0
  9  4  1  0
M  END
>  <rName>  (828) 
D-Phe_2Cl

>  <PQ_SYMBOL>  (828) 
D-Phe_2Cl

>  <FULL_NAME>  (828) 
2-chloro-D-phenylalanine

>  <IUPAC_CONDENSED>  (828) 
D-Phe(2-Cl)

>  <IUPAC>  (828) 
(2R)-2-amino-3-(2-chlorophenyl)propanoic acid

>  <TYPE>  (828) 
Backbone

>  <CLASS>  (828) 
alpha

>  <ANALOG>  (828) 
Phe

>  <MOL_WT>  (828) 
199.63699999999994

>  <LOGP>  (828) 
1.2944000000000002

>  <TPSA>  (828) 
63.32000000000001

>  <POPULARITY>  (828) 
17.7

>  <PROTECTED>  (828) 
TRUE

>  <SMILES>  (828) 
N[C@H](Cc1(ccccc1Cl))C(=O)O

>  <INCHIKEY>  (828) 
CVZZNRXMDCOHBG-MRVPVSSYSA-N

$$$$
D-Phe_2F
     RDKit          2D

 13 13  0  0  0  0  0  0  0  0999 V2000
   -1.4864    1.8099    0.0000 N   0  0  0  0  0  0  0  0  0  0  0  0
   -1.7669    0.3364    0.0000 C   0  0  0  0  0  0  0  0  0  0  0  0
   -0.6311   -0.6433    0.0000 C   0  0  0  0  0  0  0  0  0  0  0  0
    0.7853   -0.1495    0.0000 C   0  0  0  0  0  0  0  0  0  0  0  0
    1.0658    1.3241    0.0000 C   0  0  0  0  0  0  0  0  0  0  0  0
    2.4822    1.8179    0.0000 C   0  0  0  0  0  0  0  0  0  0  0  0
    3.6181    0.8382    0.0000 C   0  0  0  0  0  0  0  0  0  0  0  0
    3.3376   -0.6353    0.0000 C   0  0  0  0  0  0  0  0  0  0  0  0
    1.9212   -1.1292    0.0000 C   0  0  0  0  0  0  0  0  0  0  0  0
    1.6407   -2.6027    0.0000 F   0  0  0  0  0  0  0  0  0  0  0  0
   -3.1833   -0.1575    0.0000 C   0  0  0  0  0  0  0  0  0  0  0  0
   -3.4638   -1.6310    0.0000 O   0  0  0  0  0  0  0  0  0  0  0  0
   -4.3192    0.8222    0.0000 O   0  0  0  0  0  0  0  0  0  0  0  0
  2  1  1  6
  2  3  1  0
  3  4  1  0
  4  5  2  0
  5  6  1  0
  6  7  2  0
  7  8  1  0
  8  9  2  0
  9 10  1  0
  2 11  1  0
 11 12  2  0
 11 13  1  0
  9  4  1  0
M  END
>  <rName>  (829) 
D-Phe_2F

>  <PQ_SYMBOL>  (829) 
D-Phe_2F

>  <FULL_NAME>  (829) 
2-fluoro-D-phenylalanine

>  <IUPAC_CONDENSED>  (829) 
D-Phe(2-F)

>  <IUPAC>  (829) 
(2R)-2-amino-3-(2-fluorophenyl)propanoic acid

>  <TYPE>  (829) 
Backbone

>  <CLASS>  (829) 
alpha

>  <ANALOG>  (829) 
Phe

>  <MOL_WT>  (829) 
183.18199999999996

>  <LOGP>  (829) 
0.7801000000000002

>  <TPSA>  (829) 
63.32000000000001

>  <POPULARITY>  (829) 
18.4

>  <PROTECTED>  (829) 
TRUE

>  <SMILES>  (829) 
N[C@H](Cc1(ccccc1F))C(=O)O

>  <INCHIKEY>  (829) 
NYCRCTMDYITATC-MRVPVSSYSA-N

$$$$
D-Tic
     RDKit          2D

 13 14  0  0  0  0  0  0  0  0999 V2000
   -1.2457    1.5283    0.0000 N   0  0  0  0  0  0  0  0  0  0  0  0
   -1.6339    0.0794    0.0000 C   0  0  0  0  0  0  0  0  0  0  0  0
   -0.5733   -0.9812    0.0000 C   0  0  0  0  0  0  0  0  0  0  0  0
    0.8756   -0.5930    0.0000 C   0  0  0  0  0  0  0  0  0  0  0  0
    1.9363   -1.6536    0.0000 C   0  0  0  0  0  0  0  0  0  0  0  0
    3.3852   -1.2654    0.0000 C   0  0  0  0  0  0  0  0  0  0  0  0
    3.7734    0.1835    0.0000 C   0  0  0  0  0  0  0  0  0  0  0  0
    2.7127    1.2441    0.0000 C   0  0  0  0  0  0  0  0  0  0  0  0
    1.2638    0.8559    0.0000 C   0  0  0  0  0  0  0  0  0  0  0  0
    0.2032    1.9166    0.0000 C   0  0  0  0  0  0  0  0  0  0  0  0
   -3.0828   -0.3088    0.0000 C   0  0  0  0  0  0  0  0  0  0  0  0
   -3.4710   -1.7577    0.0000 O   0  0  0  0  0  0  0  0  0  0  0  0
   -4.1435    0.7519    0.0000 O   0  0  0  0  0  0  0  0  0  0  0  0
  1  2  1  0
  2  3  1  0
  3  4  1  0
  4  5  2  0
  5  6  1  0
  6  7  2  0
  7  8  1  0
  8  9  2  0
  9 10  1  0
  2 11  1  6
 11 12  2  0
 11 13  1  0
  9  4  1  0
 10  1  1  0
M  END
>  <rName>  (830) 
D-Tic

>  <PQ_SYMBOL>  (830) 
D-Tic

>  <FULL_NAME>  (830) 
D-1,2,3,4-tetrahydroisoquinoline-3-carboxylic acid

>  <IUPAC_CONDENSED>  (830) 
D-Tic

>  <IUPAC>  (830) 
(4R)-3-azabicyclo[4.4.0]deca-1(10),6,8-triene-4-carboxylic acid

>  <TYPE>  (830) 
Backbone

>  <CLASS>  (830) 
alpha

>  <ANALOG>  (830) 
Pro

>  <MOL_WT>  (830) 
177.20299999999995

>  <LOGP>  (830) 
0.7855000000000001

>  <TPSA>  (830) 
49.33

>  <POPULARITY>  (830) 
20.9

>  <PROTECTED>  (830) 
TRUE

>  <SMILES>  (830) 
N2[C@H](Cc1(ccccc1C2))C(=O)O

>  <INCHIKEY>  (830) 
BWKMGYQJPOAASG-SECBINFHSA-N

$$$$
Tyr_3I
     RDKit          2D

 14 14  0  0  0  0  0  0  0  0999 V2000
   -2.0094    1.6916    0.0000 N   0  0  0  0  0  0  0  0  0  0  0  0
   -2.3243    0.2250    0.0000 C   0  0  0  0  0  0  0  0  0  0  0  0
   -1.2116   -0.7809    0.0000 C   0  0  0  0  0  0  0  0  0  0  0  0
    0.2159   -0.3203    0.0000 C   0  0  0  0  0  0  0  0  0  0  0  0
    0.5308    1.1463    0.0000 C   0  0  0  0  0  0  0  0  0  0  0  0
    1.9583    1.6069    0.0000 C   0  0  0  0  0  0  0  0  0  0  0  0
    3.0710    0.6009    0.0000 C   0  0  0  0  0  0  0  0  0  0  0  0
    4.4985    1.0615    0.0000 O   0  0  0  0  0  0  0  0  0  0  0  0
    2.7561   -0.8657    0.0000 C   0  0  0  0  0  0  0  0  0  0  0  0
    3.8688   -1.8716    0.0000 I   0  0  0  0  0  0  0  0  0  0  0  0
    1.3286   -1.3263    0.0000 C   0  0  0  0  0  0  0  0  0  0  0  0
   -3.7518   -0.2356    0.0000 C   0  0  0  0  0  0  0  0  0  0  0  0
   -4.0666   -1.7022    0.0000 O   0  0  0  0  0  0  0  0  0  0  0  0
   -4.8644    0.7704    0.0000 O   0  0  0  0  0  0  0  0  0  0  0  0
  2  1  1  1
  2  3  1  0
  3  4  1  0
  4  5  1  0
  5  6  2  0
  6  7  1  0
  7  8  1  0
  7  9  2  0
  9 10  1  0
  9 11  1  0
  2 12  1  0
 12 13  2  0
 12 14  1  0
 11  4  2  0
M  END
>  <rName>  (831) 
Tyr_3I

>  <PQ_SYMBOL>  (831) 
Tyr_3I

>  <FULL_NAME>  (831) 
3-iodo-L-tyrosine

>  <IUPAC_CONDENSED>  (831) 
Tyr(3-I)

>  <IUPAC>  (831) 
(2S)-2-amino-3-(4-hydroxy-3-iodophenyl)propanoic acid

>  <TYPE>  (831) 
Backbone

>  <CLASS>  (831) 
alpha

>  <ANALOG>  (831) 
Tyr

>  <MOL_WT>  (831) 
307.087

>  <LOGP>  (831) 
0.9512

>  <TPSA>  (831) 
83.55

>  <POPULARITY>  (831) 
36.6

>  <PROTECTED>  (831) 
TRUE

>  <SMILES>  (831) 
N[C@@H](Cc1(ccc(O)c(I)c1))C(=O)O

>  <INCHIKEY>  (831) 
UQTZMGFTRHFAAM-ZETCQYMHSA-N

$$$$
Thr_Bn
     RDKit          2D

 15 15  0  0  0  0  0  0  0  0999 V2000
   -1.6242   -1.6376    0.0000 N   0  0  0  0  0  0  0  0  0  0  0  0
   -2.4349   -0.3756    0.0000 C   0  0  0  0  0  0  0  0  0  0  0  0
   -1.7473    0.9575    0.0000 C   0  0  0  0  0  0  0  0  0  0  0  0
   -0.2490    1.0286    0.0000 O   0  0  0  0  0  0  0  0  0  0  0  0
    0.5617   -0.2335    0.0000 C   0  0  0  0  0  0  0  0  0  0  0  0
    2.0600   -0.1624    0.0000 C   0  0  0  0  0  0  0  0  0  0  0  0
    2.7476    1.1707    0.0000 C   0  0  0  0  0  0  0  0  0  0  0  0
    4.2459    1.2418    0.0000 C   0  0  0  0  0  0  0  0  0  0  0  0
    5.0566   -0.0202    0.0000 C   0  0  0  0  0  0  0  0  0  0  0  0
    4.3690   -1.3533    0.0000 C   0  0  0  0  0  0  0  0  0  0  0  0
    2.8707   -1.4244    0.0000 C   0  0  0  0  0  0  0  0  0  0  0  0
   -2.5580    2.2196    0.0000 C   0  0  0  0  0  0  0  0  0  0  0  0
   -3.9333   -0.4467    0.0000 C   0  0  0  0  0  0  0  0  0  0  0  0
   -4.7440    0.8154    0.0000 O   0  0  0  0  0  0  0  0  0  0  0  0
   -4.6209   -1.7798    0.0000 O   0  0  0  0  0  0  0  0  0  0  0  0
  2  1  1  6
  2  3  1  0
  3  4  1  0
  4  5  1  0
  5  6  1  0
  6  7  2  0
  7  8  1  0
  8  9  2  0
  9 10  1  0
 10 11  2  0
  3 12  1  1
  2 13  1  0
 13 14  2  0
 13 15  1  0
 11  6  1  0
M  END
>  <rName>  (832) 
Thr_Bn

>  <PQ_SYMBOL>  (832) 
Thr_Bn

>  <FULL_NAME>  (832) 
O3-benzyl-L-threonine

>  <IUPAC_CONDENSED>  (832) 
Thr(Bn)

>  <IUPAC>  (832) 
(2S,3R)-2-amino-3-benzyloxybutanoic acid

>  <TYPE>  (832) 
Backbone

>  <CLASS>  (832) 
alpha

>  <ANALOG>  (832) 
Thr

>  <MOL_WT>  (832) 
209.24499999999998

>  <LOGP>  (832) 
1.0035999999999996

>  <TPSA>  (832) 
72.55

>  <POPULARITY>  (832) 
21

>  <PROTECTED>  (832) 
TRUE

>  <SMILES>  (832) 
N[C@@H]([C@H](OCc1(ccccc1))C)C(=O)O

>  <INCHIKEY>  (832) 
ONOURAAVVKGJNM-SCZZXKLOSA-N

$$$$
D-Phe_24diMe
     RDKit          2D

 14 14  0  0  0  0  0  0  0  0999 V2000
   -1.7174    1.8436    0.0000 N   0  0  0  0  0  0  0  0  0  0  0  0
   -2.1036    0.3942    0.0000 C   0  0  0  0  0  0  0  0  0  0  0  0
   -1.0414   -0.6650    0.0000 C   0  0  0  0  0  0  0  0  0  0  0  0
    0.4069   -0.2747    0.0000 C   0  0  0  0  0  0  0  0  0  0  0  0
    0.7931    1.1747    0.0000 C   0  0  0  0  0  0  0  0  0  0  0  0
    2.2415    1.5649    0.0000 C   0  0  0  0  0  0  0  0  0  0  0  0
    3.3036    0.5057    0.0000 C   0  0  0  0  0  0  0  0  0  0  0  0
    4.7520    0.8960    0.0000 C   0  0  0  0  0  0  0  0  0  0  0  0
    2.9174   -0.9437    0.0000 C   0  0  0  0  0  0  0  0  0  0  0  0
    1.4691   -1.3339    0.0000 C   0  0  0  0  0  0  0  0  0  0  0  0
    1.0829   -2.7834    0.0000 C   0  0  0  0  0  0  0  0  0  0  0  0
   -3.5519    0.0039    0.0000 C   0  0  0  0  0  0  0  0  0  0  0  0
   -3.9381   -1.4455    0.0000 O   0  0  0  0  0  0  0  0  0  0  0  0
   -4.6140    1.0631    0.0000 O   0  0  0  0  0  0  0  0  0  0  0  0
  2  1  1  6
  2  3  1  0
  3  4  1  0
  4  5  1  0
  5  6  2  0
  6  7  1  0
  7  8  1  0
  7  9  2  0
  9 10  1  0
 10 11  1  0
  2 12  1  0
 12 13  2  0
 12 14  1  0
 10  4  2  0
M  END
>  <rName>  (833) 
D-Phe_24diMe

>  <PQ_SYMBOL>  (833) 
D-Phe_24diMe

>  <FULL_NAME>  (833) 
2,4-dimethyl-D-phenylalanine

>  <IUPAC_CONDENSED>  (833) 
D-Phe(2,4-diMe)

>  <IUPAC>  (833) 
(2R)-2-amino-3-(2,4-dimethylphenyl)propanoic acid

>  <TYPE>  (833) 
Backbone

>  <CLASS>  (833) 
alpha

>  <ANALOG>  (833) 
Phe

>  <MOL_WT>  (833) 
193.24599999999995

>  <LOGP>  (833) 
1.25784

>  <TPSA>  (833) 
63.32000000000001

>  <POPULARITY>  (833) 
11.7

>  <PROTECTED>  (833) 
TRUE

>  <SMILES>  (833) 
N[C@H](Cc1(ccc(C)cc1C))C(=O)O

>  <INCHIKEY>  (833) 
ZEWXVRJSLTXWON-SNVBAGLBSA-N

$$$$
Orn_acetyl
     RDKit          2D

 12 11  0  0  0  0  0  0  0  0999 V2000
   -2.4617    1.9005    0.0000 N   0  0  0  0  0  0  0  0  0  0  0  0
   -2.4001    0.4018    0.0000 C   0  0  0  0  0  0  0  0  0  0  0  0
   -1.0713   -0.2943    0.0000 C   0  0  0  0  0  0  0  0  0  0  0  0
    0.1958    0.5085    0.0000 C   0  0  0  0  0  0  0  0  0  0  0  0
    1.5245   -0.1875    0.0000 C   0  0  0  0  0  0  0  0  0  0  0  0
    2.7917    0.6152    0.0000 N   0  0  0  0  0  0  0  0  0  0  0  0
    4.1204   -0.0808    0.0000 C   0  0  0  0  0  0  0  0  0  0  0  0
    4.1820   -1.5796    0.0000 O   0  0  0  0  0  0  0  0  0  0  0  0
    5.3876    0.7219    0.0000 C   0  0  0  0  0  0  0  0  0  0  0  0
   -3.6672   -0.4010    0.0000 C   0  0  0  0  0  0  0  0  0  0  0  0
   -3.6056   -1.8997    0.0000 O   0  0  0  0  0  0  0  0  0  0  0  0
   -4.9960    0.2950    0.0000 O   0  0  0  0  0  0  0  0  0  0  0  0
  2  1  1  1
  2  3  1  0
  3  4  1  0
  4  5  1  0
  5  6  1  0
  6  7  1  0
  7  8  2  0
  7  9  1  0
  2 10  1  0
 10 11  2  0
 10 12  1  0
M  END
>  <rName>  (834) 
Orn_acetyl

>  <PQ_SYMBOL>  (834) 
Orn_acetyl

>  <FULL_NAME>  (834) 
N5-acetyl-L-ornithine

>  <IUPAC_CONDENSED>  (834) 
Orn(Ac)

>  <IUPAC>  (834) 
(2S)-2-amino-5-methylcarbonylaminopentanoic acid

>  <TYPE>  (834) 
Backbone

>  <CLASS>  (834) 
alpha

>  <ANALOG>  (834) 
Lys

>  <MOL_WT>  (834) 
174.2

>  <LOGP>  (834) 
-0.6854000000000002

>  <TPSA>  (834) 
92.42

>  <POPULARITY>  (834) 
17.6

>  <PROTECTED>  (834) 
TRUE

>  <SMILES>  (834) 
N[C@@H](CCCNC(=O)C)C(=O)O

>  <INCHIKEY>  (834) 
SRXKAYJJGAAOBP-LURJTMIESA-N

$$$$
D-aMePhe
     RDKit          2D

 13 13  0  0  0  0  0  0  0  0999 V2000
   -0.4214    1.4691    0.0000 N   0  0  0  0  0  0  0  0  0  0  0  0
   -1.5526    0.4840    0.0000 C   0  0  0  0  0  0  0  0  0  0  0  0
   -2.5377    1.6152    0.0000 C   0  0  0  0  0  0  0  0  0  0  0  0
   -0.5675   -0.6472    0.0000 C   0  0  0  0  0  0  0  0  0  0  0  0
    0.9047   -0.3597    0.0000 C   0  0  0  0  0  0  0  0  0  0  0  0
    1.3918    1.0591    0.0000 C   0  0  0  0  0  0  0  0  0  0  0  0
    2.8640    1.3466    0.0000 C   0  0  0  0  0  0  0  0  0  0  0  0
    3.8491    0.2154    0.0000 C   0  0  0  0  0  0  0  0  0  0  0  0
    3.3620   -1.2033    0.0000 C   0  0  0  0  0  0  0  0  0  0  0  0
    1.8898   -1.4908    0.0000 C   0  0  0  0  0  0  0  0  0  0  0  0
   -2.6837   -0.5011    0.0000 C   0  0  0  0  0  0  0  0  0  0  0  0
   -2.3962   -1.9733    0.0000 O   0  0  0  0  0  0  0  0  0  0  0  0
   -4.1025   -0.0140    0.0000 O   0  0  0  0  0  0  0  0  0  0  0  0
  1  2  1  0
  2  3  1  1
  2  4  1  0
  4  5  1  0
  5  6  2  0
  6  7  1  0
  7  8  2  0
  8  9  1  0
  9 10  2  0
  2 11  1  0
 11 12  2  0
 11 13  1  0
 10  5  1  0
M  END
>  <rName>  (835) 
D-aMePhe

>  <PQ_SYMBOL>  (835) 
D-aMePhe

>  <FULL_NAME>  (835) 
alpha-methyl-D-phenylalanine

>  <IUPAC_CONDENSED>  (835) 
D-aMePhe

>  <IUPAC>  (835) 
(2R)-2-amino-2-benzylpropanoic acid

>  <TYPE>  (835) 
Backbone

>  <CLASS>  (835) 
alpha

>  <ANALOG>  (835) 
Phe

>  <MOL_WT>  (835) 
179.21899999999997

>  <LOGP>  (835) 
1.0311

>  <TPSA>  (835) 
63.32000000000001

>  <POPULARITY>  (835) 
17.9

>  <PROTECTED>  (835) 
TRUE

>  <SMILES>  (835) 
N[C@](C)(Cc1(ccccc1))C(=O)O

>  <INCHIKEY>  (835) 
HYOWVAAEQCNGLE-SNVBAGLBSA-N

$$$$
Ser_Bn
     RDKit          2D

 14 14  0  0  0  0  0  0  0  0999 V2000
   -2.7125    1.8435    0.0000 N   0  0  0  0  0  0  0  0  0  0  0  0
   -2.9490    0.3623    0.0000 C   0  0  0  0  0  0  0  0  0  0  0  0
   -1.7844   -0.5831    0.0000 C   0  0  0  0  0  0  0  0  0  0  0  0
   -0.3834   -0.0473    0.0000 O   0  0  0  0  0  0  0  0  0  0  0  0
    0.7812   -0.9927    0.0000 C   0  0  0  0  0  0  0  0  0  0  0  0
    2.1822   -0.4569    0.0000 C   0  0  0  0  0  0  0  0  0  0  0  0
    2.4187    1.0244    0.0000 C   0  0  0  0  0  0  0  0  0  0  0  0
    3.8197    1.5602    0.0000 C   0  0  0  0  0  0  0  0  0  0  0  0
    4.9842    0.6148    0.0000 C   0  0  0  0  0  0  0  0  0  0  0  0
    4.7478   -0.8664    0.0000 C   0  0  0  0  0  0  0  0  0  0  0  0
    3.3467   -1.4023    0.0000 C   0  0  0  0  0  0  0  0  0  0  0  0
   -4.3500   -0.1735    0.0000 C   0  0  0  0  0  0  0  0  0  0  0  0
   -4.5865   -1.6548    0.0000 O   0  0  0  0  0  0  0  0  0  0  0  0
   -5.5146    0.7719    0.0000 O   0  0  0  0  0  0  0  0  0  0  0  0
  2  1  1  1
  2  3  1  0
  3  4  1  0
  4  5  1  0
  5  6  1  0
  6  7  2  0
  7  8  1  0
  8  9  2  0
  9 10  1  0
 10 11  2  0
  2 12  1  0
 12 13  2  0
 12 14  1  0
 11  6  1  0
M  END
>  <rName>  (836) 
Ser_Bn

>  <PQ_SYMBOL>  (836) 
Ser_Bn

>  <FULL_NAME>  (836) 
O-benzyl-L-serine

>  <IUPAC_CONDENSED>  (836) 
Ser(Bn)

>  <IUPAC>  (836) 
(2S)-2-amino-3-benzyloxypropanoic acid

>  <TYPE>  (836) 
Backbone

>  <CLASS>  (836) 
alpha

>  <ANALOG>  (836) 
Ser

>  <MOL_WT>  (836) 
195.218

>  <LOGP>  (836) 
0.6151

>  <TPSA>  (836) 
72.55

>  <POPULARITY>  (836) 
21.4

>  <PROTECTED>  (836) 
TRUE

>  <SMILES>  (836) 
N[C@@H](COCc1(ccccc1))C(=O)O

>  <INCHIKEY>  (836) 
IDGQXGPQOGUGIX-VIFPVBQESA-N

$$$$
Phe_2NO2
     RDKit          2D

 15 15  0  0  0  0  0  0  0  0999 V2000
   -2.0511    1.9295    0.0000 N   0  0  0  0  0  0  0  0  0  0  0  0
   -2.0725    0.4296    0.0000 C   0  0  0  0  0  0  0  0  0  0  0  0
   -0.7843   -0.3388    0.0000 C   0  0  0  0  0  0  0  0  0  0  0  0
    0.5253    0.3925    0.0000 C   0  0  0  0  0  0  0  0  0  0  0  0
    0.5467    1.8924    0.0000 C   0  0  0  0  0  0  0  0  0  0  0  0
    1.8563    2.6238    0.0000 C   0  0  0  0  0  0  0  0  0  0  0  0
    3.1445    1.8553    0.0000 C   0  0  0  0  0  0  0  0  0  0  0  0
    3.1231    0.3555    0.0000 C   0  0  0  0  0  0  0  0  0  0  0  0
    1.8135   -0.3759    0.0000 C   0  0  0  0  0  0  0  0  0  0  0  0
    1.7921   -1.8758    0.0000 N   0  0  0  0  0  0  0  0  0  0  0  0
    0.4825   -2.6072    0.0000 O   0  0  0  0  0  0  0  0  0  0  0  0
    3.0803   -2.6442    0.0000 O   0  0  0  0  0  0  0  0  0  0  0  0
   -3.3821   -0.3018    0.0000 C   0  0  0  0  0  0  0  0  0  0  0  0
   -3.4036   -1.8016    0.0000 O   0  0  0  0  0  0  0  0  0  0  0  0
   -4.6704    0.4667    0.0000 O   0  0  0  0  0  0  0  0  0  0  0  0
  2  1  1  1
  2  3  1  0
  3  4  1  0
  4  5  2  0
  5  6  1  0
  6  7  2  0
  7  8  1  0
  8  9  2  0
  9 10  1  0
 10 11  2  0
 10 12  1  0
  2 13  1  0
 13 14  2  0
 13 15  1  0
  9  4  1  0
M  CHG  2  10   1  12  -1
M  END
>  <rName>  (837) 
Phe_2NO2

>  <PQ_SYMBOL>  (837) 
Phe_2NO2

>  <FULL_NAME>  (837) 
2-Nitro-L-Phenylalanine

>  <IUPAC_CONDENSED>  (837) 
Phe(2-NO2)

>  <IUPAC>  (837) 
(2S)-2-amino-3-(2-nitrophenyl)propanoic acid

>  <TYPE>  (837) 
Backbone

>  <CLASS>  (837) 
alpha

>  <ANALOG>  (837) 
Phe

>  <MOL_WT>  (837) 
210.18899999999994

>  <LOGP>  (837) 
0.5492000000000001

>  <TPSA>  (837) 
106.46

>  <POPULARITY>  (837) 
6.7

>  <PROTECTED>  (837) 
TRUE

>  <SMILES>  (837) 
N[C@@H](Cc1(ccccc1[N+](=O)[O-]))C(=O)O

>  <INCHIKEY>  (837) 
SDZGVFSSLGTJAJ-ZETCQYMHSA-N

$$$$
D-Phe_2NO2
     RDKit          2D

 15 15  0  0  0  0  0  0  0  0999 V2000
   -2.0511    1.9295    0.0000 N   0  0  0  0  0  0  0  0  0  0  0  0
   -2.0725    0.4296    0.0000 C   0  0  0  0  0  0  0  0  0  0  0  0
   -0.7843   -0.3388    0.0000 C   0  0  0  0  0  0  0  0  0  0  0  0
    0.5253    0.3925    0.0000 C   0  0  0  0  0  0  0  0  0  0  0  0
    0.5467    1.8924    0.0000 C   0  0  0  0  0  0  0  0  0  0  0  0
    1.8563    2.6238    0.0000 C   0  0  0  0  0  0  0  0  0  0  0  0
    3.1445    1.8553    0.0000 C   0  0  0  0  0  0  0  0  0  0  0  0
    3.1231    0.3555    0.0000 C   0  0  0  0  0  0  0  0  0  0  0  0
    1.8135   -0.3759    0.0000 C   0  0  0  0  0  0  0  0  0  0  0  0
    1.7921   -1.8758    0.0000 N   0  0  0  0  0  0  0  0  0  0  0  0
    0.4825   -2.6072    0.0000 O   0  0  0  0  0  0  0  0  0  0  0  0
    3.0803   -2.6442    0.0000 O   0  0  0  0  0  0  0  0  0  0  0  0
   -3.3821   -0.3018    0.0000 C   0  0  0  0  0  0  0  0  0  0  0  0
   -3.4036   -1.8016    0.0000 O   0  0  0  0  0  0  0  0  0  0  0  0
   -4.6704    0.4667    0.0000 O   0  0  0  0  0  0  0  0  0  0  0  0
  2  1  1  6
  2  3  1  0
  3  4  1  0
  4  5  2  0
  5  6  1  0
  6  7  2  0
  7  8  1  0
  8  9  2  0
  9 10  1  0
 10 11  2  0
 10 12  1  0
  2 13  1  0
 13 14  2  0
 13 15  1  0
  9  4  1  0
M  CHG  2  10   1  12  -1
M  END
>  <rName>  (838) 
D-Phe_2NO2

>  <PQ_SYMBOL>  (838) 
D-Phe_2NO2

>  <FULL_NAME>  (838) 
2-Nitro-D-Phenylalanine

>  <IUPAC_CONDENSED>  (838) 
D-Phe(2-NO2)

>  <IUPAC>  (838) 
(2R)-2-amino-3-(2-nitrophenyl)propanoic acid

>  <TYPE>  (838) 
Backbone

>  <CLASS>  (838) 
alpha

>  <ANALOG>  (838) 
Phe

>  <MOL_WT>  (838) 
210.18899999999994

>  <LOGP>  (838) 
0.5492000000000001

>  <TPSA>  (838) 
106.46

>  <POPULARITY>  (838) 
7.5

>  <PROTECTED>  (838) 
TRUE

>  <SMILES>  (838) 
N[C@H](Cc1(ccccc1[N+](=O)[O-]))C(=O)O

>  <INCHIKEY>  (838) 
SDZGVFSSLGTJAJ-SSDOTTSWSA-N

$$$$
Phe_3NO2
     RDKit          2D

 15 15  0  0  0  0  0  0  0  0999 V2000
   -2.6461    1.6149    0.0000 N   0  0  0  0  0  0  0  0  0  0  0  0
   -2.6827    0.1154    0.0000 C   0  0  0  0  0  0  0  0  0  0  0  0
   -1.4023   -0.6660    0.0000 C   0  0  0  0  0  0  0  0  0  0  0  0
   -0.0854    0.0521    0.0000 C   0  0  0  0  0  0  0  0  0  0  0  0
   -0.0488    1.5516    0.0000 C   0  0  0  0  0  0  0  0  0  0  0  0
    1.2681    2.2698    0.0000 C   0  0  0  0  0  0  0  0  0  0  0  0
    2.5485    1.4884    0.0000 C   0  0  0  0  0  0  0  0  0  0  0  0
    2.5119   -0.0112    0.0000 C   0  0  0  0  0  0  0  0  0  0  0  0
    1.1950   -0.7293    0.0000 C   0  0  0  0  0  0  0  0  0  0  0  0
    3.7923   -0.7926    0.0000 N   0  0  0  0  0  0  0  0  0  0  0  0
    5.1093   -0.0745    0.0000 O   0  0  0  0  0  0  0  0  0  0  0  0
    3.7558   -2.2922    0.0000 O   0  0  0  0  0  0  0  0  0  0  0  0
   -3.9996   -0.6028    0.0000 C   0  0  0  0  0  0  0  0  0  0  0  0
   -4.0361   -2.1023    0.0000 O   0  0  0  0  0  0  0  0  0  0  0  0
   -5.2800    0.1787    0.0000 O   0  0  0  0  0  0  0  0  0  0  0  0
  2  1  1  1
  2  3  1  0
  3  4  1  0
  4  5  1  0
  5  6  2  0
  6  7  1  0
  7  8  2  0
  8  9  1  0
  8 10  1  0
 10 11  2  0
 10 12  1  0
  2 13  1  0
 13 14  2  0
 13 15  1  0
  9  4  2  0
M  CHG  2  10   1  12  -1
M  END
>  <rName>  (839) 
Phe_3NO2

>  <PQ_SYMBOL>  (839) 
Phe_3NO2

>  <FULL_NAME>  (839) 
3-Nitro-L-Phenylalanine

>  <IUPAC_CONDENSED>  (839) 
Phe(3-NO2)

>  <IUPAC>  (839) 
(2S)-2-amino-3-(3-nitrophenyl)propanoic acid

>  <TYPE>  (839) 
Backbone

>  <CLASS>  (839) 
alpha

>  <ANALOG>  (839) 
Phe

>  <MOL_WT>  (839) 
210.18899999999994

>  <LOGP>  (839) 
0.5492000000000001

>  <TPSA>  (839) 
106.46

>  <POPULARITY>  (839) 
7.8

>  <PROTECTED>  (839) 
TRUE

>  <SMILES>  (839) 
N[C@@H](Cc1(cccc(c1)[N+](=O)[O-]))C(=O)O

>  <INCHIKEY>  (839) 
YTHDRUZHNYKZGF-QMMMGPOBSA-N

$$$$
D-Phe_3NO2
     RDKit          2D

 15 15  0  0  0  0  0  0  0  0999 V2000
   -2.6461    1.6149    0.0000 N   0  0  0  0  0  0  0  0  0  0  0  0
   -2.6827    0.1154    0.0000 C   0  0  0  0  0  0  0  0  0  0  0  0
   -1.4023   -0.6660    0.0000 C   0  0  0  0  0  0  0  0  0  0  0  0
   -0.0854    0.0521    0.0000 C   0  0  0  0  0  0  0  0  0  0  0  0
   -0.0488    1.5516    0.0000 C   0  0  0  0  0  0  0  0  0  0  0  0
    1.2681    2.2698    0.0000 C   0  0  0  0  0  0  0  0  0  0  0  0
    2.5485    1.4884    0.0000 C   0  0  0  0  0  0  0  0  0  0  0  0
    2.5119   -0.0112    0.0000 C   0  0  0  0  0  0  0  0  0  0  0  0
    1.1950   -0.7293    0.0000 C   0  0  0  0  0  0  0  0  0  0  0  0
    3.7923   -0.7926    0.0000 N   0  0  0  0  0  0  0  0  0  0  0  0
    5.1093   -0.0745    0.0000 O   0  0  0  0  0  0  0  0  0  0  0  0
    3.7558   -2.2922    0.0000 O   0  0  0  0  0  0  0  0  0  0  0  0
   -3.9996   -0.6028    0.0000 C   0  0  0  0  0  0  0  0  0  0  0  0
   -4.0361   -2.1023    0.0000 O   0  0  0  0  0  0  0  0  0  0  0  0
   -5.2800    0.1787    0.0000 O   0  0  0  0  0  0  0  0  0  0  0  0
  2  1  1  6
  2  3  1  0
  3  4  1  0
  4  5  1  0
  5  6  2  0
  6  7  1  0
  7  8  2  0
  8  9  1  0
  8 10  1  0
 10 11  2  0
 10 12  1  0
  2 13  1  0
 13 14  2  0
 13 15  1  0
  9  4  2  0
M  CHG  2  10   1  12  -1
M  END
>  <rName>  (840) 
D-Phe_3NO2

>  <PQ_SYMBOL>  (840) 
D-Phe_3NO2

>  <FULL_NAME>  (840) 
3-Nitro-D-Phenylalanine

>  <IUPAC_CONDENSED>  (840) 
D-Phe(3-NO2)

>  <IUPAC>  (840) 
(2R)-2-amino-3-(3-nitrophenyl)propanoic acid

>  <TYPE>  (840) 
Backbone

>  <CLASS>  (840) 
alpha

>  <ANALOG>  (840) 
Phe

>  <MOL_WT>  (840) 
210.18899999999994

>  <LOGP>  (840) 
0.5492000000000001

>  <TPSA>  (840) 
106.46

>  <POPULARITY>  (840) 
8.8

>  <PROTECTED>  (840) 
TRUE

>  <SMILES>  (840) 
N[C@H](Cc1(cccc(c1)[N+](=O)[O-]))C(=O)O

>  <INCHIKEY>  (840) 
YTHDRUZHNYKZGF-MRVPVSSYSA-N

$$$$
Trp_bRMe
     RDKit          2D

 16 17  0  0  0  0  0  0  0  0999 V2000
   -0.9801    1.6242    0.0000 N   0  0  0  0  0  0  0  0  0  0  0  0
   -1.8922    0.4333    0.0000 C   0  0  0  0  0  0  0  0  0  0  0  0
   -1.3169   -0.9520    0.0000 C   0  0  0  0  0  0  0  0  0  0  0  0
   -2.2290   -2.1429    0.0000 C   0  0  0  0  0  0  0  0  0  0  0  0
    0.1704   -1.1465    0.0000 C   0  0  0  0  0  0  0  0  0  0  0  0
    0.8873   -2.4640    0.0000 C   0  0  0  0  0  0  0  0  0  0  0  0
    2.3620   -2.1894    0.0000 N   0  0  0  0  0  0  0  0  0  0  0  0
    2.5564   -0.7020    0.0000 C   0  0  0  0  0  0  0  0  0  0  0  0
    3.7919    0.1487    0.0000 C   0  0  0  0  0  0  0  0  0  0  0  0
    3.6728    1.6440    0.0000 C   0  0  0  0  0  0  0  0  0  0  0  0
    2.3184    2.2885    0.0000 C   0  0  0  0  0  0  0  0  0  0  0  0
    1.0829    1.4378    0.0000 C   0  0  0  0  0  0  0  0  0  0  0  0
    1.2020   -0.0575    0.0000 C   0  0  0  0  0  0  0  0  0  0  0  0
   -3.3795    0.6278    0.0000 C   0  0  0  0  0  0  0  0  0  0  0  0
   -4.2916   -0.5631    0.0000 O   0  0  0  0  0  0  0  0  0  0  0  0
   -3.9548    2.0131    0.0000 O   0  0  0  0  0  0  0  0  0  0  0  0
  2  1  1  1
  2  3  1  0
  3  4  1  1
  3  5  1  0
  5  6  2  0
  6  7  1  0
  7  8  1  0
  8  9  2  0
  9 10  1  0
 10 11  2  0
 11 12  1  0
 12 13  2  0
  2 14  1  0
 14 15  2  0
 14 16  1  0
 13  5  1  0
 13  8  1  0
M  END
>  <rName>  (841) 
Trp_bRMe

>  <PQ_SYMBOL>  (841) 
Trp_bRMe

>  <FULL_NAME>  (841) 
(betaR)-beta-Methyl-L-tryptophan

>  <IUPAC_CONDENSED>  (841) 
Trp(bR-Me)

>  <IUPAC>  (841) 
(2S,3R)-2-amino-3-(1H-indol-3-yl)butanoic acid

>  <TYPE>  (841) 
Backbone

>  <CLASS>  (841) 
alpha

>  <ANALOG>  (841) 
Trp

>  <MOL_WT>  (841) 
218.256

>  <LOGP>  (841) 
1.6833

>  <TPSA>  (841) 
79.11

>  <POPULARITY>  (841) 
9.2

>  <PROTECTED>  (841) 
TRUE

>  <SMILES>  (841) 
N[C@@H]([C@H](C)c1(c[nH]c2(ccccc12)))C(=O)O

>  <INCHIKEY>  (841) 
CZSQAYAIWDEOSA-HQJQHLMTSA-N

$$$$
Trp_bSMe
     RDKit          2D

 16 17  0  0  0  0  0  0  0  0999 V2000
   -0.9801    1.6242    0.0000 N   0  0  0  0  0  0  0  0  0  0  0  0
   -1.8922    0.4333    0.0000 C   0  0  0  0  0  0  0  0  0  0  0  0
   -1.3169   -0.9520    0.0000 C   0  0  0  0  0  0  0  0  0  0  0  0
   -2.2290   -2.1429    0.0000 C   0  0  0  0  0  0  0  0  0  0  0  0
    0.1704   -1.1465    0.0000 C   0  0  0  0  0  0  0  0  0  0  0  0
    0.8873   -2.4640    0.0000 C   0  0  0  0  0  0  0  0  0  0  0  0
    2.3620   -2.1894    0.0000 N   0  0  0  0  0  0  0  0  0  0  0  0
    2.5564   -0.7020    0.0000 C   0  0  0  0  0  0  0  0  0  0  0  0
    3.7919    0.1487    0.0000 C   0  0  0  0  0  0  0  0  0  0  0  0
    3.6728    1.6440    0.0000 C   0  0  0  0  0  0  0  0  0  0  0  0
    2.3184    2.2885    0.0000 C   0  0  0  0  0  0  0  0  0  0  0  0
    1.0829    1.4378    0.0000 C   0  0  0  0  0  0  0  0  0  0  0  0
    1.2020   -0.0575    0.0000 C   0  0  0  0  0  0  0  0  0  0  0  0
   -3.3795    0.6278    0.0000 C   0  0  0  0  0  0  0  0  0  0  0  0
   -4.2916   -0.5631    0.0000 O   0  0  0  0  0  0  0  0  0  0  0  0
   -3.9548    2.0131    0.0000 O   0  0  0  0  0  0  0  0  0  0  0  0
  2  1  1  1
  2  3  1  0
  3  4  1  6
  3  5  1  0
  5  6  2  0
  6  7  1  0
  7  8  1  0
  8  9  2  0
  9 10  1  0
 10 11  2  0
 11 12  1  0
 12 13  2  0
  2 14  1  0
 14 15  2  0
 14 16  1  0
 13  5  1  0
 13  8  1  0
M  END
>  <rName>  (842) 
Trp_bSMe

>  <PQ_SYMBOL>  (842) 
Trp_bSMe

>  <FULL_NAME>  (842) 
(betaS)-beta-Methyl-L-tryptophan

>  <IUPAC_CONDENSED>  (842) 
Trp(bS-Me)

>  <IUPAC>  (842) 
(2S,3S)-2-amino-3-(1H-indol-3-yl)butanoic acid

>  <TYPE>  (842) 
Backbone

>  <CLASS>  (842) 
alpha

>  <ANALOG>  (842) 
Trp

>  <MOL_WT>  (842) 
218.256

>  <LOGP>  (842) 
1.6833

>  <TPSA>  (842) 
79.11

>  <POPULARITY>  (842) 
11.6

>  <PROTECTED>  (842) 
TRUE

>  <SMILES>  (842) 
N[C@@H]([C@@H](C)c1(c[nH]c2(ccccc12)))C(=O)O

>  <INCHIKEY>  (842) 
CZSQAYAIWDEOSA-CPCISQLKSA-N

$$$$
D-Phe_3OMe
     RDKit          2D

 14 14  0  0  0  0  0  0  0  0999 V2000
   -2.2742    1.6194    0.0000 N   0  0  0  0  0  0  0  0  0  0  0  0
   -2.3172    0.1200    0.0000 C   0  0  0  0  0  0  0  0  0  0  0  0
   -1.0402   -0.6669    0.0000 C   0  0  0  0  0  0  0  0  0  0  0  0
    0.2798    0.0456    0.0000 C   0  0  0  0  0  0  0  0  0  0  0  0
    0.3228    1.5450    0.0000 C   0  0  0  0  0  0  0  0  0  0  0  0
    1.6428    2.2574    0.0000 C   0  0  0  0  0  0  0  0  0  0  0  0
    2.9198    1.4705    0.0000 C   0  0  0  0  0  0  0  0  0  0  0  0
    2.8768   -0.0289    0.0000 C   0  0  0  0  0  0  0  0  0  0  0  0
    4.1538   -0.8158    0.0000 O   0  0  0  0  0  0  0  0  0  0  0  0
    4.1108   -2.3152    0.0000 C   0  0  0  0  0  0  0  0  0  0  0  0
    1.5568   -0.7414    0.0000 C   0  0  0  0  0  0  0  0  0  0  0  0
   -3.6372   -0.5924    0.0000 C   0  0  0  0  0  0  0  0  0  0  0  0
   -3.6802   -2.0918    0.0000 O   0  0  0  0  0  0  0  0  0  0  0  0
   -4.9142    0.1945    0.0000 O   0  0  0  0  0  0  0  0  0  0  0  0
  2  1  1  6
  2  3  1  0
  3  4  1  0
  4  5  1  0
  5  6  2  0
  6  7  1  0
  7  8  2  0
  8  9  1  0
  9 10  1  0
  8 11  1  0
  2 12  1  0
 12 13  2  0
 12 14  1  0
 11  4  2  0
M  END
>  <rName>  (843) 
D-Phe_3OMe

>  <PQ_SYMBOL>  (843) 
D-Phe_3OMe

>  <FULL_NAME>  (843) 
3-Methoxy-D-Phenylalanine

>  <IUPAC_CONDENSED>  (843) 
D-Phe(3-OMe)

>  <IUPAC>  (843) 
(2R)-2-amino-3-(3-methoxyphenyl)propanoic acid

>  <TYPE>  (843) 
Backbone

>  <CLASS>  (843) 
alpha

>  <ANALOG>  (843) 
Tyr

>  <MOL_WT>  (843) 
195.21799999999996

>  <LOGP>  (843) 
0.6496

>  <TPSA>  (843) 
72.55

>  <POPULARITY>  (843) 
8.6

>  <PROTECTED>  (843) 
TRUE

>  <SMILES>  (843) 
N[C@H](Cc1(cccc(OC)c1))C(=O)O

>  <INCHIKEY>  (843) 
XTXGLOBWOMUGQB-SECBINFHSA-N

$$$$
NiBu-G
     RDKit          2D

  9  8  0  0  0  0  0  0  0  0999 V2000
    0.0000    0.0000    0.0000 N   0  0  0  0  0  0  0  0  0  0  0  0
   -1.2990    0.7500    0.0000 C   0  0  0  0  0  0  0  0  0  0  0  0
   -2.5981    0.0000    0.0000 C   0  0  0  0  0  0  0  0  0  0  0  0
   -3.8971    0.7500    0.0000 C   0  0  0  0  0  0  0  0  0  0  0  0
   -2.5981   -1.5000    0.0000 C   0  0  0  0  0  0  0  0  0  0  0  0
    1.2990    0.7500    0.0000 C   0  0  0  0  0  0  0  0  0  0  0  0
    2.5981    0.0000    0.0000 C   0  0  0  0  0  0  0  0  0  0  0  0
    2.5981   -1.5000    0.0000 O   0  0  0  0  0  0  0  0  0  0  0  0
    3.8971    0.7500    0.0000 O   0  0  0  0  0  0  0  0  0  0  0  0
  1  2  1  0
  2  3  1  0
  3  4  1  0
  3  5  1  0
  1  6  1  0
  6  7  1  0
  7  8  2  0
  7  9  1  0
M  END
>  <rName>  (844) 
NiBu-G

>  <PQ_SYMBOL>  (844) 
NiBu-G

>  <FULL_NAME>  (844) 
N-isobutylglycine

>  <IUPAC_CONDENSED>  (844) 
iBu-Gly

>  <IUPAC>  (844) 
2-((2-methylpropyl)amino)acetic acid

>  <TYPE>  (844) 
Backbone

>  <CLASS>  (844) 
alpha

>  <ANALOG>  (844) 
Gly

>  <MOL_WT>  (844) 
131.175

>  <LOGP>  (844) 
0.31659999999999994

>  <TPSA>  (844) 
49.33

>  <POPULARITY>  (844) 
31.8

>  <PROTECTED>  (844) 
TRUE

>  <SMILES>  (844) 
N(CC(C)C)CC(=O)O

>  <INCHIKEY>  (844) 
VKZGJEWGVNFKPE-UHFFFAOYSA-N

$$$$
Phe_3NH2
     RDKit          2D

 13 13  0  0  0  0  0  0  0  0999 V2000
   -1.7680    1.6690    0.0000 N   0  0  0  0  0  0  0  0  0  0  0  0
   -1.9932    0.1860    0.0000 C   0  0  0  0  0  0  0  0  0  0  0  0
   -0.8215   -0.7506    0.0000 C   0  0  0  0  0  0  0  0  0  0  0  0
    0.5754   -0.2041    0.0000 C   0  0  0  0  0  0  0  0  0  0  0  0
    0.8006    1.2789    0.0000 C   0  0  0  0  0  0  0  0  0  0  0  0
    2.1976    1.8254    0.0000 C   0  0  0  0  0  0  0  0  0  0  0  0
    3.3693    0.8888    0.0000 C   0  0  0  0  0  0  0  0  0  0  0  0
    3.1441   -0.5942    0.0000 C   0  0  0  0  0  0  0  0  0  0  0  0
    4.3158   -1.5307    0.0000 N   0  0  0  0  0  0  0  0  0  0  0  0
    1.7472   -1.1406    0.0000 C   0  0  0  0  0  0  0  0  0  0  0  0
   -3.3901   -0.3605    0.0000 C   0  0  0  0  0  0  0  0  0  0  0  0
   -3.6153   -1.8435    0.0000 O   0  0  0  0  0  0  0  0  0  0  0  0
   -4.5618    0.5760    0.0000 O   0  0  0  0  0  0  0  0  0  0  0  0
  2  1  1  1
  2  3  1  0
  3  4  1  0
  4  5  2  0
  5  6  1  0
  6  7  2  0
  7  8  1  0
  8  9  1  0
  8 10  2  0
  2 11  1  0
 11 12  2  0
 11 13  1  0
 10  4  1  0
M  END
>  <rName>  (845) 
Phe_3NH2

>  <PQ_SYMBOL>  (845) 
Phe_3NH2

>  <FULL_NAME>  (845) 
3-Amino-L-Phenylalanine

>  <IUPAC_CONDENSED>  (845) 
Phe(3-NH2)

>  <IUPAC>  (845) 
(2S)-2-amino-3-(3-aminophenyl)propanoic acid

>  <TYPE>  (845) 
Backbone

>  <CLASS>  (845) 
alpha

>  <ANALOG>  (845) 
Phe

>  <MOL_WT>  (845) 
180.207

>  <LOGP>  (845) 
0.22320000000000012

>  <TPSA>  (845) 
89.34

>  <POPULARITY>  (845) 
11

>  <PROTECTED>  (845) 
TRUE

>  <SMILES>  (845) 
N[C@@H](Cc1(cccc(N)c1))C(=O)O

>  <INCHIKEY>  (845) 
DDLYNVBJVVOUGB-QMMMGPOBSA-N

$$$$
Phe_2NH2
     RDKit          2D

 13 13  0  0  0  0  0  0  0  0999 V2000
   -1.4864    1.8099    0.0000 N   0  0  0  0  0  0  0  0  0  0  0  0
   -1.7669    0.3364    0.0000 C   0  0  0  0  0  0  0  0  0  0  0  0
   -0.6311   -0.6433    0.0000 C   0  0  0  0  0  0  0  0  0  0  0  0
    0.7853   -0.1495    0.0000 C   0  0  0  0  0  0  0  0  0  0  0  0
    1.0658    1.3241    0.0000 C   0  0  0  0  0  0  0  0  0  0  0  0
    2.4822    1.8179    0.0000 C   0  0  0  0  0  0  0  0  0  0  0  0
    3.6181    0.8382    0.0000 C   0  0  0  0  0  0  0  0  0  0  0  0
    3.3376   -0.6353    0.0000 C   0  0  0  0  0  0  0  0  0  0  0  0
    1.9212   -1.1292    0.0000 C   0  0  0  0  0  0  0  0  0  0  0  0
    1.6407   -2.6027    0.0000 N   0  0  0  0  0  0  0  0  0  0  0  0
   -3.1833   -0.1575    0.0000 C   0  0  0  0  0  0  0  0  0  0  0  0
   -3.4638   -1.6310    0.0000 O   0  0  0  0  0  0  0  0  0  0  0  0
   -4.3192    0.8222    0.0000 O   0  0  0  0  0  0  0  0  0  0  0  0
  2  1  1  1
  2  3  1  0
  3  4  1  0
  4  5  2  0
  5  6  1  0
  6  7  2  0
  7  8  1  0
  8  9  2  0
  9 10  1  0
  2 11  1  0
 11 12  2  0
 11 13  1  0
  9  4  1  0
M  END
>  <rName>  (846) 
Phe_2NH2

>  <PQ_SYMBOL>  (846) 
Phe_2NH2

>  <FULL_NAME>  (846) 
2-Amino-L-Phenylalanine

>  <IUPAC_CONDENSED>  (846) 
Phe(2-NH2)

>  <IUPAC>  (846) 
(2S)-2-amino-3-(2-aminophenyl)propanoic acid

>  <TYPE>  (846) 
Backbone

>  <CLASS>  (846) 
alpha

>  <ANALOG>  (846) 
Phe

>  <MOL_WT>  (846) 
180.20699999999994

>  <LOGP>  (846) 
0.22320000000000012

>  <TPSA>  (846) 
89.34

>  <POPULARITY>  (846) 
7.8

>  <PROTECTED>  (846) 
TRUE

>  <SMILES>  (846) 
N[C@@H](Cc1(ccccc1N))C(=O)O

>  <INCHIKEY>  (846) 
DJZAVKNBQZFEAL-QMMMGPOBSA-N

$$$$
S-Nip
     RDKit          2D

  9  9  0  0  0  0  0  0  0  0999 V2000
    1.9167   -1.2990    0.0000 N   0  0  0  0  0  0  0  0  0  0  0  0
    0.4167   -1.2990    0.0000 C   0  0  0  0  0  0  0  0  0  0  0  0
   -0.3333    0.0000    0.0000 C   0  0  0  0  0  0  0  0  0  0  0  0
    0.4167    1.2990    0.0000 C   0  0  0  0  0  0  0  0  0  0  0  0
    1.9167    1.2990    0.0000 C   0  0  0  0  0  0  0  0  0  0  0  0
    2.6667    0.0000    0.0000 C   0  0  0  0  0  0  0  0  0  0  0  0
   -1.8333    0.0000    0.0000 C   0  0  0  0  0  0  0  0  0  0  0  0
   -2.5833   -1.2990    0.0000 O   0  0  0  0  0  0  0  0  0  0  0  0
   -2.5833    1.2990    0.0000 O   0  0  0  0  0  0  0  0  0  0  0  0
  1  2  1  0
  2  3  1  0
  3  4  1  0
  4  5  1  0
  5  6  1  0
  3  7  1  1
  7  8  2  0
  7  9  1  0
  6  1  1  0
M  END
>  <rName>  (847) 
S-Nip

>  <PQ_SYMBOL>  (847) 
S-Nip

>  <FULL_NAME>  (847) 
(S)-Nipecotic acid

>  <IUPAC_CONDENSED>  (847) 
(S)-Nip

>  <IUPAC>  (847) 
(3S)-piperidine-3-carboxylic acid

>  <TYPE>  (847) 
Backbone

>  <CLASS>  (847) 
beta

>  <ANALOG>  (847) 
Pro

>  <MOL_WT>  (847) 
129.15900000000002

>  <LOGP>  (847) 
0.07059999999999994

>  <TPSA>  (847) 
49.33

>  <POPULARITY>  (847) 
15.1

>  <PROTECTED>  (847) 
TRUE

>  <SMILES>  (847) 
N1C[C@H](CCC1)C(=O)O

>  <INCHIKEY>  (847) 
XJLSEXAGTJCILF-YFKPBYRVSA-N

$$$$
D-hPip
     RDKit          2D

 10 10  0  0  0  0  0  0  0  0999 V2000
    1.3040   -1.4730    0.0000 N   0  0  0  0  0  0  0  0  0  0  0  0
    0.1701   -0.4910    0.0000 C   0  0  0  0  0  0  0  0  0  0  0  0
    0.4536    0.9820    0.0000 C   0  0  0  0  0  0  0  0  0  0  0  0
    1.8709    1.4730    0.0000 C   0  0  0  0  0  0  0  0  0  0  0  0
    3.0048    0.4910    0.0000 C   0  0  0  0  0  0  0  0  0  0  0  0
    2.7213   -0.9820    0.0000 C   0  0  0  0  0  0  0  0  0  0  0  0
   -1.2473   -0.9820    0.0000 C   0  0  0  0  0  0  0  0  0  0  0  0
   -2.3812   -0.0000    0.0000 C   0  0  0  0  0  0  0  0  0  0  0  0
   -2.0977    1.4730    0.0000 O   0  0  0  0  0  0  0  0  0  0  0  0
   -3.7985   -0.4910    0.0000 O   0  0  0  0  0  0  0  0  0  0  0  0
  1  2  1  0
  2  3  1  0
  3  4  1  0
  4  5  1  0
  5  6  1  0
  2  7  1  1
  7  8  1  0
  8  9  2  0
  8 10  1  0
  6  1  1  0
M  END
>  <rName>  (848) 
D-hPip

>  <PQ_SYMBOL>  (848) 
D-hPip

>  <FULL_NAME>  (848) 
(R)-2-(Piperidin-2-yl)acetic acid

>  <IUPAC_CONDENSED>  (848) 
D-hPip

>  <IUPAC>  (848) 
2-((2R)-piperidin-2-yl)acetic acid

>  <TYPE>  (848) 
Backbone

>  <CLASS>  (848) 
beta

>  <ANALOG>  (848) 
Pro

>  <MOL_WT>  (848) 
143.186

>  <LOGP>  (848) 
0.6032

>  <TPSA>  (848) 
49.33

>  <POPULARITY>  (848) 
10.8

>  <PROTECTED>  (848) 
TRUE

>  <SMILES>  (848) 
N1[C@H](CCCC1)CC(=O)O

>  <INCHIKEY>  (848) 
PRNLNZMJMCUWNV-ZCFIWIBFSA-N

$$$$
hPip
     RDKit          2D

 10 10  0  0  0  0  0  0  0  0999 V2000
    1.3040   -1.4730    0.0000 N   0  0  0  0  0  0  0  0  0  0  0  0
    0.1701   -0.4910    0.0000 C   0  0  0  0  0  0  0  0  0  0  0  0
    0.4536    0.9820    0.0000 C   0  0  0  0  0  0  0  0  0  0  0  0
    1.8709    1.4730    0.0000 C   0  0  0  0  0  0  0  0  0  0  0  0
    3.0048    0.4910    0.0000 C   0  0  0  0  0  0  0  0  0  0  0  0
    2.7213   -0.9820    0.0000 C   0  0  0  0  0  0  0  0  0  0  0  0
   -1.2473   -0.9820    0.0000 C   0  0  0  0  0  0  0  0  0  0  0  0
   -2.3812   -0.0000    0.0000 C   0  0  0  0  0  0  0  0  0  0  0  0
   -2.0977    1.4730    0.0000 O   0  0  0  0  0  0  0  0  0  0  0  0
   -3.7985   -0.4910    0.0000 O   0  0  0  0  0  0  0  0  0  0  0  0
  1  2  1  0
  2  3  1  0
  3  4  1  0
  4  5  1  0
  5  6  1  0
  2  7  1  6
  7  8  1  0
  8  9  2  0
  8 10  1  0
  6  1  1  0
M  END
>  <rName>  (849) 
hPip

>  <PQ_SYMBOL>  (849) 
hPip

>  <FULL_NAME>  (849) 
(S)-2-(Piperidin-2-yl)acetic acid

>  <IUPAC_CONDENSED>  (849) 
hPip

>  <IUPAC>  (849) 
2-((2S)-piperidin-2-yl)acetic acid

>  <TYPE>  (849) 
Backbone

>  <CLASS>  (849) 
beta

>  <ANALOG>  (849) 
Pro

>  <MOL_WT>  (849) 
143.186

>  <LOGP>  (849) 
0.6032

>  <TPSA>  (849) 
49.33

>  <POPULARITY>  (849) 
10.8

>  <PROTECTED>  (849) 
TRUE

>  <SMILES>  (849) 
N1[C@@H](CCCC1)CC(=O)O

>  <INCHIKEY>  (849) 
PRNLNZMJMCUWNV-LURJTMIESA-N

$$$$
Phe_3OMe
     RDKit          2D

 14 14  0  0  0  0  0  0  0  0999 V2000
   -2.2742    1.6194    0.0000 N   0  0  0  0  0  0  0  0  0  0  0  0
   -2.3172    0.1200    0.0000 C   0  0  0  0  0  0  0  0  0  0  0  0
   -1.0402   -0.6669    0.0000 C   0  0  0  0  0  0  0  0  0  0  0  0
    0.2798    0.0456    0.0000 C   0  0  0  0  0  0  0  0  0  0  0  0
    0.3228    1.5450    0.0000 C   0  0  0  0  0  0  0  0  0  0  0  0
    1.6428    2.2574    0.0000 C   0  0  0  0  0  0  0  0  0  0  0  0
    2.9198    1.4705    0.0000 C   0  0  0  0  0  0  0  0  0  0  0  0
    2.8768   -0.0289    0.0000 C   0  0  0  0  0  0  0  0  0  0  0  0
    4.1538   -0.8158    0.0000 O   0  0  0  0  0  0  0  0  0  0  0  0
    4.1108   -2.3152    0.0000 C   0  0  0  0  0  0  0  0  0  0  0  0
    1.5568   -0.7414    0.0000 C   0  0  0  0  0  0  0  0  0  0  0  0
   -3.6372   -0.5924    0.0000 C   0  0  0  0  0  0  0  0  0  0  0  0
   -3.6802   -2.0918    0.0000 O   0  0  0  0  0  0  0  0  0  0  0  0
   -4.9142    0.1945    0.0000 O   0  0  0  0  0  0  0  0  0  0  0  0
  2  1  1  1
  2  3  1  0
  3  4  1  0
  4  5  1  0
  5  6  2  0
  6  7  1  0
  7  8  2  0
  8  9  1  0
  9 10  1  0
  8 11  1  0
  2 12  1  0
 12 13  2  0
 12 14  1  0
 11  4  2  0
M  END
>  <rName>  (850) 
Phe_3OMe

>  <PQ_SYMBOL>  (850) 
Phe_3OMe

>  <FULL_NAME>  (850) 
3-Methoxy-L-Phenylalanine

>  <IUPAC_CONDENSED>  (850) 
Phe(3-OMe)

>  <IUPAC>  (850) 
(2S)-2-amino-3-(3-methoxyphenyl)propanoic acid

>  <TYPE>  (850) 
Backbone

>  <CLASS>  (850) 
alpha

>  <ANALOG>  (850) 
Tyr

>  <MOL_WT>  (850) 
195.21799999999996

>  <LOGP>  (850) 
0.6496

>  <TPSA>  (850) 
72.55

>  <POPULARITY>  (850) 
13.9

>  <PROTECTED>  (850) 
TRUE

>  <SMILES>  (850) 
N[C@@H](Cc1(cccc(OC)c1))C(=O)O

>  <INCHIKEY>  (850) 
XTXGLOBWOMUGQB-VIFPVBQESA-N

$$$$
Phe_24diNO2
     RDKit          2D

 18 18  0  0  0  0  0  0  0  0999 V2000
   -2.2817    2.2658    0.0000 N   0  0  0  0  0  0  0  0  0  0  0  0
   -2.7617    0.8447    0.0000 C   0  0  0  0  0  0  0  0  0  0  0  0
   -1.7709   -0.2815    0.0000 C   0  0  0  0  0  0  0  0  0  0  0  0
   -0.3002    0.0134    0.0000 C   0  0  0  0  0  0  0  0  0  0  0  0
    0.1798    1.4346    0.0000 C   0  0  0  0  0  0  0  0  0  0  0  0
    1.6505    1.7295    0.0000 C   0  0  0  0  0  0  0  0  0  0  0  0
    2.6413    0.6033    0.0000 C   0  0  0  0  0  0  0  0  0  0  0  0
    2.1613   -0.8179    0.0000 C   0  0  0  0  0  0  0  0  0  0  0  0
    0.6906   -1.1128    0.0000 C   0  0  0  0  0  0  0  0  0  0  0  0
    0.2107   -2.5339    0.0000 N   0  0  0  0  0  0  0  0  0  0  0  0
   -1.2601   -2.8289    0.0000 O   0  0  0  0  0  0  0  0  0  0  0  0
    1.2014   -3.6602    0.0000 O   0  0  0  0  0  0  0  0  0  0  0  0
    4.1120    0.8982    0.0000 N   0  0  0  0  0  0  0  0  0  0  0  0
    4.5919    2.3193    0.0000 O   0  0  0  0  0  0  0  0  0  0  0  0
    5.1028   -0.2280    0.0000 O   0  0  0  0  0  0  0  0  0  0  0  0
   -4.2324    0.5498    0.0000 C   0  0  0  0  0  0  0  0  0  0  0  0
   -4.7123   -0.8714    0.0000 O   0  0  0  0  0  0  0  0  0  0  0  0
   -5.2232    1.6760    0.0000 O   0  0  0  0  0  0  0  0  0  0  0  0
  2  1  1  1
  2  3  1  0
  3  4  1  0
  4  5  1  0
  5  6  2  0
  6  7  1  0
  7  8  2  0
  8  9  1  0
  9 10  1  0
 10 11  2  0
 10 12  1  0
  7 13  1  0
 13 14  2  0
 13 15  1  0
  2 16  1  0
 16 17  2  0
 16 18  1  0
  9  4  2  0
M  CHG  4  10   1  12  -1  13   1  15  -1
M  END
>  <rName>  (851) 
Phe_24diNO2

>  <PQ_SYMBOL>  (851) 
Phe_24diNO2

>  <FULL_NAME>  (851) 
2,4-Dinitro-L-phenylalanine

>  <IUPAC_CONDENSED>  (851) 
Phe(2,4-diNO2)

>  <IUPAC>  (851) 
(2S)-2-amino-3-(2,4-dinitrophenyl)propanoic acid

>  <TYPE>  (851) 
Backbone

>  <CLASS>  (851) 
alpha

>  <ANALOG>  (851) 
Phe

>  <MOL_WT>  (851) 
255.18599999999995

>  <LOGP>  (851) 
0.45739999999999975

>  <TPSA>  (851) 
149.6

>  <POPULARITY>  (851) 
4.2

>  <PROTECTED>  (851) 
TRUE

>  <SMILES>  (851) 
N[C@@H](Cc1(ccc(cc1[N+](=O)[O-])[N+](=O)[O-]))C(=O)O

>  <INCHIKEY>  (851) 
LLVUHQYJZJUDAM-ZETCQYMHSA-N

$$$$
Phe_4CH2PO3H2
     RDKit          2D

 17 17  0  0  0  0  0  0  0  0999 V2000
   -3.1457    1.6694    0.0000 N   0  0  0  0  0  0  0  0  0  0  0  0
   -3.4800    0.2071    0.0000 C   0  0  0  0  0  0  0  0  0  0  0  0
   -2.3807   -0.8135    0.0000 C   0  0  0  0  0  0  0  0  0  0  0  0
   -0.9472   -0.3718    0.0000 C   0  0  0  0  0  0  0  0  0  0  0  0
   -0.6130    1.0905    0.0000 C   0  0  0  0  0  0  0  0  0  0  0  0
    0.8205    1.5322    0.0000 C   0  0  0  0  0  0  0  0  0  0  0  0
    1.9198    0.5116    0.0000 C   0  0  0  0  0  0  0  0  0  0  0  0
    1.5855   -0.9507    0.0000 C   0  0  0  0  0  0  0  0  0  0  0  0
    0.1520   -1.3924    0.0000 C   0  0  0  0  0  0  0  0  0  0  0  0
    3.3533    0.9532    0.0000 C   0  0  0  0  0  0  0  0  0  0  0  0
    4.4525   -0.0674    0.0000 P   0  0  0  0  0  0  0  0  0  0  0  0
    5.5518   -1.0880    0.0000 O   0  0  0  0  0  0  0  0  0  0  0  0
    5.4731    1.0319    0.0000 O   0  0  0  0  0  0  0  0  0  0  0  0
    3.4319   -1.1666    0.0000 O   0  0  0  0  0  0  0  0  0  0  0  0
   -4.9135   -0.2346    0.0000 C   0  0  0  0  0  0  0  0  0  0  0  0
   -5.2477   -1.6969    0.0000 O   0  0  0  0  0  0  0  0  0  0  0  0
   -6.0127    0.7860    0.0000 O   0  0  0  0  0  0  0  0  0  0  0  0
  2  1  1  1
  2  3  1  0
  3  4  1  0
  4  5  1  0
  5  6  2  0
  6  7  1  0
  7  8  2  0
  8  9  1  0
  7 10  1  0
 10 11  1  0
 11 12  2  0
 11 13  1  0
 11 14  1  0
  2 15  1  0
 15 16  2  0
 15 17  1  0
  9  4  2  0
M  END
>  <rName>  (852) 
Phe_4CH2PO3H2

>  <PQ_SYMBOL>  (852) 
Phe_4CH2PO3H2

>  <FULL_NAME>  (852) 
4-Phosphonomethyl-L-Phenylalanine

>  <IUPAC_CONDENSED>  (852) 
Phe(4-CH2PO3H2)

>  <IUPAC>  (852) 
(2S)-2-amino-3-(4-(dihydroxyphosphorylmethyl)phenyl)propanoic acid

>  <TYPE>  (852) 
Backbone

>  <CLASS>  (852) 
alpha

>  <ANALOG>  (852) 
Phe

>  <MOL_WT>  (852) 
259.1979999999999

>  <LOGP>  (852) 
0.31870000000000004

>  <TPSA>  (852) 
120.85000000000001

>  <POPULARITY>  (852) 
22.6

>  <PROTECTED>  (852) 
TRUE

>  <SMILES>  (852) 
N[C@@H](Cc1(ccc(cc1)CP(=O)(O)O))C(=O)O

>  <INCHIKEY>  (852) 
SAQLLHDEEMZENJ-VIFPVBQESA-N

$$$$
Phe_4CH2POOEt2
     RDKit          2D

 21 21  0  0  0  0  0  0  0  0999 V2000
   -4.1600    1.8845    0.0000 N   0  0  0  0  0  0  0  0  0  0  0  0
   -4.5061    0.4250    0.0000 C   0  0  0  0  0  0  0  0  0  0  0  0
   -3.4152   -0.6045    0.0000 C   0  0  0  0  0  0  0  0  0  0  0  0
   -1.9781   -0.1745    0.0000 C   0  0  0  0  0  0  0  0  0  0  0  0
   -1.6320    1.2850    0.0000 C   0  0  0  0  0  0  0  0  0  0  0  0
   -0.1950    1.7150    0.0000 C   0  0  0  0  0  0  0  0  0  0  0  0
    0.8960    0.6855    0.0000 C   0  0  0  0  0  0  0  0  0  0  0  0
    0.5498   -0.7740    0.0000 C   0  0  0  0  0  0  0  0  0  0  0  0
   -0.8872   -1.2040    0.0000 C   0  0  0  0  0  0  0  0  0  0  0  0
    2.3330    1.1155    0.0000 C   0  0  0  0  0  0  0  0  0  0  0  0
    3.4239    0.0859    0.0000 P   0  0  0  0  0  0  0  0  0  0  0  0
    4.5148   -0.9436    0.0000 O   0  0  0  0  0  0  0  0  0  0  0  0
    4.4534    1.1769    0.0000 O   0  0  0  0  0  0  0  0  0  0  0  0
    5.9130    0.8307    0.0000 C   0  0  0  0  0  0  0  0  0  0  0  0
    6.9425    1.9216    0.0000 C   0  0  0  0  0  0  0  0  0  0  0  0
    2.3944   -1.0050    0.0000 O   0  0  0  0  0  0  0  0  0  0  0  0
    2.8244   -2.4420    0.0000 C   0  0  0  0  0  0  0  0  0  0  0  0
    1.7949   -3.5329    0.0000 C   0  0  0  0  0  0  0  0  0  0  0  0
   -5.9431   -0.0050    0.0000 C   0  0  0  0  0  0  0  0  0  0  0  0
   -6.2893   -1.4645    0.0000 O   0  0  0  0  0  0  0  0  0  0  0  0
   -7.0341    1.0245    0.0000 O   0  0  0  0  0  0  0  0  0  0  0  0
  2  1  1  1
  2  3  1  0
  3  4  1  0
  4  5  1  0
  5  6  2  0
  6  7  1  0
  7  8  2  0
  8  9  1  0
  7 10  1  0
 10 11  1  0
 11 12  2  0
 11 13  1  0
 13 14  1  0
 14 15  1  0
 11 16  1  0
 16 17  1  0
 17 18  1  0
  2 19  1  0
 19 20  2  0
 19 21  1  0
  9  4  2  0
M  END
>  <rName>  (853) 
Phe_4CH2POOEt2

>  <PQ_SYMBOL>  (853) 
Phe_4CH2POOEt2

>  <FULL_NAME>  (853) 
4-Diethylphosphonomethyl-L-Phenylalanine

>  <IUPAC_CONDENSED>  (853) 
Phe(4-CH2PO(OEt)2)

>  <IUPAC>  (853) 
(2S)-2-amino-3-(4-((diethoxyphosphoryl)methyl)phenyl)propanoic acid

>  <TYPE>  (853) 
Backbone

>  <CLASS>  (853) 
alpha

>  <ANALOG>  (853) 
Phe

>  <MOL_WT>  (853) 
315.306

>  <LOGP>  (853) 
2.4071

>  <TPSA>  (853) 
98.85000000000001

>  <POPULARITY>  (853) 
8

>  <PROTECTED>  (853) 
TRUE

>  <SMILES>  (853) 
N[C@@H](Cc1(ccc(cc1)CP(=O)(OCC)OCC))C(=O)O

>  <INCHIKEY>  (853) 
POFDMXZNNZZJLR-ZDUSSCGKSA-N

$$$$
3-oxa-Ac4c
     RDKit          2D

  8  8  0  0  0  0  0  0  0  0999 V2000
    0.2785   -1.7061    0.0000 N   0  0  0  0  0  0  0  0  0  0  0  0
   -0.2785   -0.3134    0.0000 C   0  0  0  0  0  0  0  0  0  0  0  0
   -1.6713   -0.8704    0.0000 C   0  0  0  0  0  0  0  0  0  0  0  0
   -2.2283    0.5223    0.0000 O   0  0  0  0  0  0  0  0  0  0  0  0
   -0.8356    1.0794    0.0000 C   0  0  0  0  0  0  0  0  0  0  0  0
    1.1142    0.2437    0.0000 C   0  0  0  0  0  0  0  0  0  0  0  0
    1.3281    1.7284    0.0000 O   0  0  0  0  0  0  0  0  0  0  0  0
    2.2930   -0.6839    0.0000 O   0  0  0  0  0  0  0  0  0  0  0  0
  1  2  1  0
  2  3  1  0
  3  4  1  0
  4  5  1  0
  2  6  1  0
  6  7  2  0
  6  8  1  0
  5  2  1  0
M  END
>  <rName>  (854) 
3-oxa-Ac4c

>  <PQ_SYMBOL>  (854) 
3-oxa-Ac4c

>  <FULL_NAME>  (854) 
3-Aminooxetane-3-carboxylic acid

>  <IUPAC_CONDENSED>  (854) 
3-oxa-Ac4c

>  <IUPAC>  (854) 
3-amino-1-oxacyclobutane-3-carboxylic acid

>  <TYPE>  (854) 
Backbone

>  <CLASS>  (854) 
alpha

>  <ANALOG>  (854) 
Ser

>  <MOL_WT>  (854) 
117.10399999999998

>  <LOGP>  (854) 
-1.2012999999999998

>  <TPSA>  (854) 
72.55

>  <POPULARITY>  (854) 
8.1

>  <PROTECTED>  (854) 
TRUE

>  <SMILES>  (854) 
NC1(COC1)C(=O)O

>  <INCHIKEY>  (854) 
LXRNYRAHXDUNKR-UHFFFAOYSA-N

$$$$
4-oxa-Ac6c
     RDKit          2D

 10 10  0  0  0  0  0  0  0  0999 V2000
    1.1103   -1.5851    0.0000 N   0  0  0  0  0  0  0  0  0  0  0  0
    0.2419   -0.3621    0.0000 C   0  0  0  0  0  0  0  0  0  0  0  0
   -0.8118   -1.4296    0.0000 C   0  0  0  0  0  0  0  0  0  0  0  0
   -2.2632   -1.0509    0.0000 C   0  0  0  0  0  0  0  0  0  0  0  0
   -2.6609    0.3955    0.0000 O   0  0  0  0  0  0  0  0  0  0  0  0
   -1.6072    1.4630    0.0000 C   0  0  0  0  0  0  0  0  0  0  0  0
   -0.1558    1.0843    0.0000 C   0  0  0  0  0  0  0  0  0  0  0  0
    1.5972    0.2807    0.0000 C   0  0  0  0  0  0  0  0  0  0  0  0
    1.7181    1.7758    0.0000 O   0  0  0  0  0  0  0  0  0  0  0  0
    2.8315   -0.5716    0.0000 O   0  0  0  0  0  0  0  0  0  0  0  0
  1  2  1  0
  2  3  1  0
  3  4  1  0
  4  5  1  0
  5  6  1  0
  6  7  1  0
  2  8  1  0
  8  9  2  0
  8 10  1  0
  7  2  1  0
M  END
>  <rName>  (855) 
4-oxa-Ac6c

>  <PQ_SYMBOL>  (855) 
4-oxa-Ac6c

>  <FULL_NAME>  (855) 
4-aminooxane-4-carboxylic acid

>  <IUPAC_CONDENSED>  (855) 
4-oxa-Ac6c

>  <IUPAC>  (855) 
4-aminooxane-4-carboxylic acid

>  <TYPE>  (855) 
Backbone

>  <CLASS>  (855) 
alpha

>  <ANALOG>  (855) 
Ser

>  <MOL_WT>  (855) 
145.15800000000002

>  <LOGP>  (855) 
-0.42110000000000053

>  <TPSA>  (855) 
72.55

>  <POPULARITY>  (855) 
10.7

>  <PROTECTED>  (855) 
TRUE

>  <SMILES>  (855) 
NC1(CCOCC1)C(=O)O

>  <INCHIKEY>  (855) 
DPDPQQHHTHKSRN-UHFFFAOYSA-N

$$$$
D-aMeAsp
     RDKit          2D

 10  9  0  0  0  0  0  0  0  0999 V2000
    0.5181    1.5297    0.0000 N   0  0  0  0  0  0  0  0  0  0  0  0
   -0.5678    0.4949    0.0000 C   0  0  0  0  0  0  0  0  0  0  0  0
   -1.6026    1.5808    0.0000 C   0  0  0  0  0  0  0  0  0  0  0  0
    0.4670   -0.5910    0.0000 C   0  0  0  0  0  0  0  0  0  0  0  0
    1.9248   -0.2377    0.0000 C   0  0  0  0  0  0  0  0  0  0  0  0
    2.3478    1.2014    0.0000 O   0  0  0  0  0  0  0  0  0  0  0  0
    2.9596   -1.3236    0.0000 O   0  0  0  0  0  0  0  0  0  0  0  0
   -1.6537   -0.5399    0.0000 C   0  0  0  0  0  0  0  0  0  0  0  0
   -3.0928   -0.1169    0.0000 O   0  0  0  0  0  0  0  0  0  0  0  0
   -1.3005   -1.9977    0.0000 O   0  0  0  0  0  0  0  0  0  0  0  0
  1  2  1  0
  2  3  1  1
  2  4  1  0
  4  5  1  0
  5  6  2  0
  5  7  1  0
  2  8  1  0
  8  9  2  0
  8 10  1  0
M  END
>  <rName>  (856) 
D-aMeAsp

>  <PQ_SYMBOL>  (856) 
D-aMeAsp

>  <FULL_NAME>  (856) 
alpha-methyl-D-aspartic acid

>  <IUPAC_CONDENSED>  (856) 
D-aMeAsp

>  <IUPAC>  (856) 
(2R)-2-amino-2-methylbutanedioic acid

>  <TYPE>  (856) 
Backbone

>  <CLASS>  (856) 
alpha

>  <ANALOG>  (856) 
Asp

>  <MOL_WT>  (856) 
147.13

>  <LOGP>  (856) 
-0.7368999999999997

>  <TPSA>  (856) 
100.62000000000002

>  <POPULARITY>  (856) 
8.1

>  <PROTECTED>  (856) 
TRUE

>  <SMILES>  (856) 
N[C@](C)(CC(=O)O)C(=O)O

>  <INCHIKEY>  (856) 
CWAYDJFPMMUKOI-RXMQYKEDSA-N

$$$$
aMeAsp
     RDKit          2D

 10  9  0  0  0  0  0  0  0  0999 V2000
    0.5181    1.5297    0.0000 N   0  0  0  0  0  0  0  0  0  0  0  0
   -0.5678    0.4949    0.0000 C   0  0  0  0  0  0  0  0  0  0  0  0
   -1.6026    1.5808    0.0000 C   0  0  0  0  0  0  0  0  0  0  0  0
    0.4670   -0.5910    0.0000 C   0  0  0  0  0  0  0  0  0  0  0  0
    1.9248   -0.2377    0.0000 C   0  0  0  0  0  0  0  0  0  0  0  0
    2.3478    1.2014    0.0000 O   0  0  0  0  0  0  0  0  0  0  0  0
    2.9596   -1.3236    0.0000 O   0  0  0  0  0  0  0  0  0  0  0  0
   -1.6537   -0.5399    0.0000 C   0  0  0  0  0  0  0  0  0  0  0  0
   -3.0928   -0.1169    0.0000 O   0  0  0  0  0  0  0  0  0  0  0  0
   -1.3005   -1.9977    0.0000 O   0  0  0  0  0  0  0  0  0  0  0  0
  1  2  1  0
  2  3  1  6
  2  4  1  0
  4  5  1  0
  5  6  2  0
  5  7  1  0
  2  8  1  0
  8  9  2  0
  8 10  1  0
M  END
>  <rName>  (857) 
aMeAsp

>  <PQ_SYMBOL>  (857) 
aMeAsp

>  <FULL_NAME>  (857) 
alpha-methyl-L-aspartic acid

>  <IUPAC_CONDENSED>  (857) 
aMeAsp

>  <IUPAC>  (857) 
(2S)-2-amino-2-methylbutanedioic acid

>  <TYPE>  (857) 
Backbone

>  <CLASS>  (857) 
alpha

>  <ANALOG>  (857) 
Asp

>  <MOL_WT>  (857) 
147.13

>  <LOGP>  (857) 
-0.7368999999999997

>  <TPSA>  (857) 
100.62000000000002

>  <POPULARITY>  (857) 
9.5

>  <PROTECTED>  (857) 
TRUE

>  <SMILES>  (857) 
N[C@@](C)(CC(=O)O)C(=O)O

>  <INCHIKEY>  (857) 
CWAYDJFPMMUKOI-YFKPBYRVSA-N

$$$$
aMeGlu
     RDKit          2D

 11 10  0  0  0  0  0  0  0  0999 V2000
   -0.4806    1.9216    0.0000 N   0  0  0  0  0  0  0  0  0  0  0  0
   -1.2184    0.6156    0.0000 C   0  0  0  0  0  0  0  0  0  0  0  0
   -2.5244    1.3534    0.0000 C   0  0  0  0  0  0  0  0  0  0  0  0
    0.0876   -0.1222    0.0000 C   0  0  0  0  0  0  0  0  0  0  0  0
    1.3796    0.6400    0.0000 C   0  0  0  0  0  0  0  0  0  0  0  0
    2.6856   -0.0979    0.0000 C   0  0  0  0  0  0  0  0  0  0  0  0
    2.6996   -1.5978    0.0000 O   0  0  0  0  0  0  0  0  0  0  0  0
    3.9775    0.6643    0.0000 O   0  0  0  0  0  0  0  0  0  0  0  0
   -1.9562   -0.6904    0.0000 C   0  0  0  0  0  0  0  0  0  0  0  0
   -3.4561   -0.7044    0.0000 O   0  0  0  0  0  0  0  0  0  0  0  0
   -1.1941   -1.9823    0.0000 O   0  0  0  0  0  0  0  0  0  0  0  0
  1  2  1  0
  2  3  1  6
  2  4  1  0
  4  5  1  0
  5  6  1  0
  6  7  2  0
  6  8  1  0
  2  9  1  0
  9 10  2  0
  9 11  1  0
M  END
>  <rName>  (858) 
aMeGlu

>  <PQ_SYMBOL>  (858) 
aMeGlu

>  <FULL_NAME>  (858) 
alpha-methyl-L-glutamic acid

>  <IUPAC_CONDENSED>  (858) 
aMeGlu

>  <IUPAC>  (858) 
(2S)-2-amino-2-methylpentanedioic acid

>  <TYPE>  (858) 
Backbone

>  <CLASS>  (858) 
alpha

>  <ANALOG>  (858) 
Glu

>  <MOL_WT>  (858) 
161.15699999999998

>  <LOGP>  (858) 
-0.3468000000000003

>  <TPSA>  (858) 
100.62000000000002

>  <POPULARITY>  (858) 
19.2

>  <PROTECTED>  (858) 
TRUE

>  <SMILES>  (858) 
N[C@@](C)(CCC(=O)O)C(=O)O

>  <INCHIKEY>  (858) 
QHSCIWIRXWFIGH-LURJTMIESA-N

$$$$
D-aMeSer
     RDKit          2D

  8  7  0  0  0  0  0  0  0  0999 V2000
    1.3909    1.3248    0.0000 N   0  0  0  0  0  0  0  0  0  0  0  0
    0.1650    0.4604    0.0000 C   0  0  0  0  0  0  0  0  0  0  0  0
   -0.6994    1.6864    0.0000 C   0  0  0  0  0  0  0  0  0  0  0  0
    1.0293   -0.7655    0.0000 C   0  0  0  0  0  0  0  0  0  0  0  0
    2.5232   -0.6299    0.0000 O   0  0  0  0  0  0  0  0  0  0  0  0
   -1.0610   -0.4039    0.0000 C   0  0  0  0  0  0  0  0  0  0  0  0
   -2.4225    0.2256    0.0000 O   0  0  0  0  0  0  0  0  0  0  0  0
   -0.9254   -1.8978    0.0000 O   0  0  0  0  0  0  0  0  0  0  0  0
  1  2  1  0
  2  3  1  1
  2  4  1  0
  4  5  1  0
  2  6  1  0
  6  7  2  0
  6  8  1  0
M  END
>  <rName>  (859) 
D-aMeSer

>  <PQ_SYMBOL>  (859) 
D-aMeSer

>  <FULL_NAME>  (859) 
alpha-methyl-D-serine

>  <IUPAC_CONDENSED>  (859) 
D-aMeSer

>  <IUPAC>  (859) 
(2R)-2-amino-2-(hydroxymethyl)propanoic acid

>  <TYPE>  (859) 
Backbone

>  <CLASS>  (859) 
alpha

>  <ANALOG>  (859) 
Ser

>  <MOL_WT>  (859) 
119.11999999999998

>  <LOGP>  (859) 
-1.2192999999999998

>  <TPSA>  (859) 
83.55

>  <POPULARITY>  (859) 
12.2

>  <PROTECTED>  (859) 
TRUE

>  <SMILES>  (859) 
N[C@](C)(CO)C(=O)O

>  <INCHIKEY>  (859) 
CDUUKBXTEOFITR-SCSAIBSYSA-N

$$$$
aMeSer
     RDKit          2D

  8  7  0  0  0  0  0  0  0  0999 V2000
    1.3909    1.3248    0.0000 N   0  0  0  0  0  0  0  0  0  0  0  0
    0.1650    0.4604    0.0000 C   0  0  0  0  0  0  0  0  0  0  0  0
   -0.6994    1.6864    0.0000 C   0  0  0  0  0  0  0  0  0  0  0  0
    1.0293   -0.7655    0.0000 C   0  0  0  0  0  0  0  0  0  0  0  0
    2.5232   -0.6299    0.0000 O   0  0  0  0  0  0  0  0  0  0  0  0
   -1.0610   -0.4039    0.0000 C   0  0  0  0  0  0  0  0  0  0  0  0
   -2.4225    0.2256    0.0000 O   0  0  0  0  0  0  0  0  0  0  0  0
   -0.9254   -1.8978    0.0000 O   0  0  0  0  0  0  0  0  0  0  0  0
  1  2  1  0
  2  3  1  6
  2  4  1  0
  4  5  1  0
  2  6  1  0
  6  7  2  0
  6  8  1  0
M  END
>  <rName>  (860) 
aMeSer

>  <PQ_SYMBOL>  (860) 
aMeSer

>  <FULL_NAME>  (860) 
alpha-methyl-L-serine

>  <IUPAC_CONDENSED>  (860) 
aMeSer

>  <IUPAC>  (860) 
(2S)-2-amino-2-(hydroxymethyl)propanoic acid

>  <TYPE>  (860) 
Backbone

>  <CLASS>  (860) 
alpha

>  <ANALOG>  (860) 
Ser

>  <MOL_WT>  (860) 
119.11999999999998

>  <LOGP>  (860) 
-1.2192999999999998

>  <TPSA>  (860) 
83.55

>  <POPULARITY>  (860) 
19.9

>  <PROTECTED>  (860) 
TRUE

>  <SMILES>  (860) 
N[C@@](C)(CO)C(=O)O

>  <INCHIKEY>  (860) 
CDUUKBXTEOFITR-BYPYZUCNSA-N

$$$$
D-Ala_CF3
     RDKit          2D

 10  9  0  0  0  0  0  0  0  0999 V2000
   -0.5029   -1.7542    0.0000 N   0  0  0  0  0  0  0  0  0  0  0  0
   -0.7450   -0.2738    0.0000 C   0  0  0  0  0  0  0  0  0  0  0  0
    0.4160    0.6760    0.0000 C   0  0  0  0  0  0  0  0  0  0  0  0
    1.8190    0.1455    0.0000 C   0  0  0  0  0  0  0  0  0  0  0  0
    3.2221   -0.3850    0.0000 F   0  0  0  0  0  0  0  0  0  0  0  0
    2.3495    1.5485    0.0000 F   0  0  0  0  0  0  0  0  0  0  0  0
    1.2885   -1.2576    0.0000 F   0  0  0  0  0  0  0  0  0  0  0  0
   -2.1480    0.2567    0.0000 C   0  0  0  0  0  0  0  0  0  0  0  0
   -2.3901    1.7370    0.0000 O   0  0  0  0  0  0  0  0  0  0  0  0
   -3.3090   -0.6932    0.0000 O   0  0  0  0  0  0  0  0  0  0  0  0
  2  1  1  1
  2  3  1  0
  3  4  1  0
  4  5  1  0
  4  6  1  0
  4  7  1  0
  2  8  1  0
  8  9  2  0
  8 10  1  0
M  END
>  <rName>  (861) 
D-Ala_CF3

>  <PQ_SYMBOL>  (861) 
D-Ala_CF3

>  <FULL_NAME>  (861) 
3-(trifluoromethyl)-D-alanine

>  <IUPAC_CONDENSED>  (861) 
D-Ala(CF3)

>  <IUPAC>  (861) 
(2R)-2-amino-4,4,4-trifluorobutanoic acid

>  <TYPE>  (861) 
Backbone

>  <CLASS>  (861) 
alpha

>  <ANALOG>  (861) 
X

>  <MOL_WT>  (861) 
157.091

>  <LOGP>  (861) 
0.3506999999999998

>  <TPSA>  (861) 
63.32000000000001

>  <POPULARITY>  (861) 
6.6

>  <PROTECTED>  (861) 
TRUE

>  <SMILES>  (861) 
N[C@H](CC(F)(F)F)C(=O)O

>  <INCHIKEY>  (861) 
AQPCXCOPDSEKQT-UWTATZPHSA-N

$$$$
4Abz
     RDKit          2D

 10 10  0  0  0  0  0  0  0  0999 V2000
    3.7500    0.0000    0.0000 N   0  0  0  0  0  0  0  0  0  0  0  0
    2.2500   -0.0000    0.0000 C   0  0  0  0  0  0  0  0  0  0  0  0
    1.5000   -1.2990    0.0000 C   0  0  0  0  0  0  0  0  0  0  0  0
   -0.0000   -1.2990    0.0000 C   0  0  0  0  0  0  0  0  0  0  0  0
   -0.7500    0.0000    0.0000 C   0  0  0  0  0  0  0  0  0  0  0  0
    0.0000    1.2990    0.0000 C   0  0  0  0  0  0  0  0  0  0  0  0
    1.5000    1.2990    0.0000 C   0  0  0  0  0  0  0  0  0  0  0  0
   -2.2500    0.0000    0.0000 C   0  0  0  0  0  0  0  0  0  0  0  0
   -3.0000   -1.2990    0.0000 O   0  0  0  0  0  0  0  0  0  0  0  0
   -3.0000    1.2990    0.0000 O   0  0  0  0  0  0  0  0  0  0  0  0
  1  2  1  0
  2  3  1  0
  3  4  2  0
  4  5  1  0
  5  6  2  0
  6  7  1  0
  5  8  1  0
  8  9  2  0
  8 10  1  0
  7  2  2  0
M  END
>  <rName>  (862) 
4Abz

>  <PQ_SYMBOL>  (862) 
4Abz

>  <FULL_NAME>  (862) 
4-Aminobenzoic acid

>  <IUPAC_CONDENSED>  (862) 
4Abz

>  <IUPAC>  (862) 
4-aminobenzene-1-carboxylic acid

>  <TYPE>  (862) 
Backbone

>  <CLASS>  (862) 
unknown

>  <ANALOG>  (862) 
X

>  <MOL_WT>  (862) 
137.138

>  <LOGP>  (862) 
0.9670000000000001

>  <TPSA>  (862) 
63.32000000000001

>  <POPULARITY>  (862) 
14.2

>  <PROTECTED>  (862) 
FALSE

>  <SMILES>  (862) 
Nc1ccc(cc1)C(=O)O

>  <INCHIKEY>  (862) 
ALYNCZNDIQEVRV-UHFFFAOYSA-N

$$$$
Gaba_3OH
     RDKit          2D

  8  7  0  0  0  0  0  0  0  0999 V2000
   -3.4109   -0.0483    0.0000 N   0  0  0  0  0  0  0  0  0  0  0  0
   -2.1220   -0.8156    0.0000 C   0  0  0  0  0  0  0  0  0  0  0  0
   -0.8131   -0.0829    0.0000 C   0  0  0  0  0  0  0  0  0  0  0  0
   -0.7931    1.4169    0.0000 O   0  0  0  0  0  0  0  0  0  0  0  0
    0.4759   -0.8502    0.0000 C   0  0  0  0  0  0  0  0  0  0  0  0
    1.7848   -0.1175    0.0000 C   0  0  0  0  0  0  0  0  0  0  0  0
    1.8048    1.3823    0.0000 O   0  0  0  0  0  0  0  0  0  0  0  0
    3.0737   -0.8848    0.0000 O   0  0  0  0  0  0  0  0  0  0  0  0
  1  2  1  0
  2  3  1  0
  3  4  1  0
  3  5  1  0
  5  6  1  0
  6  7  2  0
  6  8  1  0
M  END
>  <rName>  (863) 
Gaba_3OH

>  <PQ_SYMBOL>  (863) 
Gaba_3OH

>  <FULL_NAME>  (863) 
4-Amino-3-hydroxybutanoic acid

>  <IUPAC_CONDENSED>  (863) 
Gaba(3-OH)

>  <IUPAC>  (863) 
4-amino-3-hydroxybutanoic acid

>  <TYPE>  (863) 
Backbone

>  <CLASS>  (863) 
gamma

>  <ANALOG>  (863) 
X

>  <MOL_WT>  (863) 
119.11999999999999

>  <LOGP>  (863) 
-1.2192999999999998

>  <TPSA>  (863) 
83.55

>  <POPULARITY>  (863) 
15

>  <PROTECTED>  (863) 
TRUE

>  <SMILES>  (863) 
NCC(O)CC(=O)O

>  <INCHIKEY>  (863) 
YQGDEPYYFWUPGO-UHFFFAOYSA-N

$$$$
Phe_3I
     RDKit          2D

 13 13  0  0  0  0  0  0  0  0999 V2000
   -1.7680    1.6690    0.0000 N   0  0  0  0  0  0  0  0  0  0  0  0
   -1.9932    0.1860    0.0000 C   0  0  0  0  0  0  0  0  0  0  0  0
   -0.8215   -0.7506    0.0000 C   0  0  0  0  0  0  0  0  0  0  0  0
    0.5754   -0.2041    0.0000 C   0  0  0  0  0  0  0  0  0  0  0  0
    0.8006    1.2789    0.0000 C   0  0  0  0  0  0  0  0  0  0  0  0
    2.1976    1.8254    0.0000 C   0  0  0  0  0  0  0  0  0  0  0  0
    3.3693    0.8888    0.0000 C   0  0  0  0  0  0  0  0  0  0  0  0
    3.1441   -0.5942    0.0000 C   0  0  0  0  0  0  0  0  0  0  0  0
    4.3158   -1.5307    0.0000 I   0  0  0  0  0  0  0  0  0  0  0  0
    1.7472   -1.1406    0.0000 C   0  0  0  0  0  0  0  0  0  0  0  0
   -3.3901   -0.3605    0.0000 C   0  0  0  0  0  0  0  0  0  0  0  0
   -3.6153   -1.8435    0.0000 O   0  0  0  0  0  0  0  0  0  0  0  0
   -4.5618    0.5760    0.0000 O   0  0  0  0  0  0  0  0  0  0  0  0
  2  1  1  1
  2  3  1  0
  3  4  1  0
  4  5  2  0
  5  6  1  0
  6  7  2  0
  7  8  1  0
  8  9  1  0
  8 10  2  0
  2 11  1  0
 11 12  2  0
 11 13  1  0
 10  4  1  0
M  END
>  <rName>  (864) 
Phe_3I

>  <PQ_SYMBOL>  (864) 
Phe_3I

>  <FULL_NAME>  (864) 
3-Iodo-L-Phenylalanine

>  <IUPAC_CONDENSED>  (864) 
Phe(3-I)

>  <IUPAC>  (864) 
(2S)-2-amino-3-(3-iodophenyl)propanoic acid

>  <TYPE>  (864) 
Backbone

>  <CLASS>  (864) 
alpha

>  <ANALOG>  (864) 
Phe

>  <MOL_WT>  (864) 
291.088

>  <LOGP>  (864) 
1.2456000000000003

>  <TPSA>  (864) 
63.32000000000001

>  <POPULARITY>  (864) 
13.1

>  <PROTECTED>  (864) 
TRUE

>  <SMILES>  (864) 
N[C@@H](Cc1(cccc(I)c1))C(=O)O

>  <INCHIKEY>  (864) 
BABTYIKKTLTNRX-QMMMGPOBSA-N

$$$$
D-Iva
     RDKit          2D

  8  7  0  0  0  0  0  0  0  0999 V2000
    1.3909    1.3248    0.0000 N   0  0  0  0  0  0  0  0  0  0  0  0
    0.1650    0.4604    0.0000 C   0  0  0  0  0  0  0  0  0  0  0  0
   -0.6994    1.6864    0.0000 C   0  0  0  0  0  0  0  0  0  0  0  0
    1.0293   -0.7655    0.0000 C   0  0  0  0  0  0  0  0  0  0  0  0
    2.5232   -0.6299    0.0000 C   0  0  0  0  0  0  0  0  0  0  0  0
   -1.0610   -0.4039    0.0000 C   0  0  0  0  0  0  0  0  0  0  0  0
   -2.4225    0.2256    0.0000 O   0  0  0  0  0  0  0  0  0  0  0  0
   -0.9254   -1.8978    0.0000 O   0  0  0  0  0  0  0  0  0  0  0  0
  1  2  1  0
  2  3  1  1
  2  4  1  0
  4  5  1  0
  2  6  1  0
  6  7  2  0
  6  8  1  0
M  END
>  <rName>  (865) 
D-Iva

>  <PQ_SYMBOL>  (865) 
D-Iva

>  <FULL_NAME>  (865) 
D-Isovaline

>  <IUPAC_CONDENSED>  (865) 
D-Iva

>  <IUPAC>  (865) 
(2R)-2-amino-2-methylbutanoic acid

>  <TYPE>  (865) 
Backbone

>  <CLASS>  (865) 
alpha

>  <ANALOG>  (865) 
Val

>  <MOL_WT>  (865) 
117.14799999999998

>  <LOGP>  (865) 
0.19839999999999985

>  <TPSA>  (865) 
63.32000000000001

>  <POPULARITY>  (865) 
31.9

>  <PROTECTED>  (865) 
TRUE

>  <SMILES>  (865) 
N[C@](C)(CC)C(=O)O

>  <INCHIKEY>  (865) 
GCHPUFAZSONQIV-RXMQYKEDSA-N

$$$$
Iva
     RDKit          2D

  8  7  0  0  0  0  0  0  0  0999 V2000
    1.3909    1.3248    0.0000 N   0  0  0  0  0  0  0  0  0  0  0  0
    0.1650    0.4604    0.0000 C   0  0  0  0  0  0  0  0  0  0  0  0
   -0.6994    1.6864    0.0000 C   0  0  0  0  0  0  0  0  0  0  0  0
    1.0293   -0.7655    0.0000 C   0  0  0  0  0  0  0  0  0  0  0  0
    2.5232   -0.6299    0.0000 C   0  0  0  0  0  0  0  0  0  0  0  0
   -1.0610   -0.4039    0.0000 C   0  0  0  0  0  0  0  0  0  0  0  0
   -2.4225    0.2256    0.0000 O   0  0  0  0  0  0  0  0  0  0  0  0
   -0.9254   -1.8978    0.0000 O   0  0  0  0  0  0  0  0  0  0  0  0
  1  2  1  0
  2  3  1  6
  2  4  1  0
  4  5  1  0
  2  6  1  0
  6  7  2  0
  6  8  1  0
M  END
>  <rName>  (866) 
Iva

>  <PQ_SYMBOL>  (866) 
Iva

>  <FULL_NAME>  (866) 
Isovaline

>  <IUPAC_CONDENSED>  (866) 
Iva

>  <IUPAC>  (866) 
(2S)-2-amino-2-methylbutanoic acid

>  <TYPE>  (866) 
Backbone

>  <CLASS>  (866) 
alpha

>  <ANALOG>  (866) 
Val

>  <MOL_WT>  (866) 
117.14799999999998

>  <LOGP>  (866) 
0.19839999999999985

>  <TPSA>  (866) 
63.32000000000001

>  <POPULARITY>  (866) 
29.5

>  <PROTECTED>  (866) 
TRUE

>  <SMILES>  (866) 
N[C@@](C)(CC)C(=O)O

>  <INCHIKEY>  (866) 
GCHPUFAZSONQIV-YFKPBYRVSA-N

$$$$
Deg
     RDKit          2D

  9  8  0  0  0  0  0  0  0  0999 V2000
   -0.0000    1.7113    0.0000 N   0  0  0  0  0  0  0  0  0  0  0  0
   -0.0000    0.2113    0.0000 C   0  0  0  0  0  0  0  0  0  0  0  0
    1.5000    0.2113    0.0000 C   0  0  0  0  0  0  0  0  0  0  0  0
    2.2500    1.5104    0.0000 C   0  0  0  0  0  0  0  0  0  0  0  0
   -1.5000    0.2113    0.0000 C   0  0  0  0  0  0  0  0  0  0  0  0
   -2.2500    1.5104    0.0000 C   0  0  0  0  0  0  0  0  0  0  0  0
    0.0000   -1.2887    0.0000 C   0  0  0  0  0  0  0  0  0  0  0  0
    1.2990   -2.0387    0.0000 O   0  0  0  0  0  0  0  0  0  0  0  0
   -1.2990   -2.0387    0.0000 O   0  0  0  0  0  0  0  0  0  0  0  0
  1  2  1  0
  2  3  1  0
  3  4  1  0
  2  5  1  0
  5  6  1  0
  2  7  1  0
  7  8  2  0
  7  9  1  0
M  END
>  <rName>  (867) 
Deg

>  <PQ_SYMBOL>  (867) 
Deg

>  <FULL_NAME>  (867) 
Diethyl-Glycine

>  <IUPAC_CONDENSED>  (867) 
Deg

>  <IUPAC>  (867) 
2-amino-2-ethylbutanoic acid

>  <TYPE>  (867) 
Backbone

>  <CLASS>  (867) 
alpha

>  <ANALOG>  (867) 
Leu

>  <MOL_WT>  (867) 
131.175

>  <LOGP>  (867) 
0.5884999999999998

>  <TPSA>  (867) 
63.32000000000001

>  <POPULARITY>  (867) 
25.6

>  <PROTECTED>  (867) 
TRUE

>  <SMILES>  (867) 
NC(CC)(CC)C(=O)O

>  <INCHIKEY>  (867) 
KWOMLHIFHFWBSB-UHFFFAOYSA-N

$$$$
D-Asp_OMe
     RDKit          2D

 10  9  0  0  0  0  0  0  0  0999 V2000
    0.8391   -1.7602    0.0000 N   0  0  0  0  0  0  0  0  0  0  0  0
    1.0145   -0.2705    0.0000 C   0  0  0  0  0  0  0  0  0  0  0  0
   -0.1878    0.6263    0.0000 C   0  0  0  0  0  0  0  0  0  0  0  0
   -1.5657    0.0334    0.0000 C   0  0  0  0  0  0  0  0  0  0  0  0
   -1.7412   -1.4563    0.0000 O   0  0  0  0  0  0  0  0  0  0  0  0
   -2.7681    0.9302    0.0000 O   0  0  0  0  0  0  0  0  0  0  0  0
   -4.1459    0.3373    0.0000 C   0  0  0  0  0  0  0  0  0  0  0  0
    2.3924    0.3223    0.0000 C   0  0  0  0  0  0  0  0  0  0  0  0
    2.5679    1.8120    0.0000 O   0  0  0  0  0  0  0  0  0  0  0  0
    3.5948   -0.5745    0.0000 O   0  0  0  0  0  0  0  0  0  0  0  0
  2  1  1  6
  2  3  1  0
  3  4  1  0
  4  5  2  0
  4  6  1  0
  6  7  1  0
  2  8  1  0
  8  9  2  0
  8 10  1  0
M  END
>  <rName>  (868) 
D-Asp_OMe

>  <PQ_SYMBOL>  (868) 
D-Asp_OMe

>  <FULL_NAME>  (868) 
D-aspartic-acid-beta-methyl ester

>  <IUPAC_CONDENSED>  (868) 
D-Asp(OMe)

>  <IUPAC>  (868) 
(2R)-2-amino-3-(methoxycarbonyl)propanoic acid

>  <TYPE>  (868) 
Backbone

>  <CLASS>  (868) 
alpha

>  <ANALOG>  (868) 
Asp

>  <MOL_WT>  (868) 
147.13

>  <LOGP>  (868) 
-1.0386000000000002

>  <TPSA>  (868) 
89.62000000000002

>  <POPULARITY>  (868) 
10.4

>  <PROTECTED>  (868) 
TRUE

>  <SMILES>  (868) 
N[C@H](CC(=O)OC)C(=O)O

>  <INCHIKEY>  (868) 
SBRYFUVVWOMLLP-GSVOUGTGSA-N

$$$$
Ac6c_52F
     RDKit          2D

 12 12  0  0  0  0  0  0  0  0999 V2000
    1.8973   -1.5208    0.0000 N   0  0  0  0  0  0  0  0  0  0  0  0
    0.9132   -0.3887    0.0000 C   0  0  0  0  0  0  0  0  0  0  0  0
   -0.0308   -1.5544    0.0000 C   0  0  0  0  0  0  0  0  0  0  0  0
   -1.5123   -1.3197    0.0000 C   0  0  0  0  0  0  0  0  0  0  0  0
   -2.0499    0.0806    0.0000 C   0  0  0  0  0  0  0  0  0  0  0  0
   -3.3356   -0.6919    0.0000 F   0  0  0  0  0  0  0  0  0  0  0  0
   -3.0340    1.2127    0.0000 F   0  0  0  0  0  0  0  0  0  0  0  0
   -1.1059    1.2463    0.0000 C   0  0  0  0  0  0  0  0  0  0  0  0
    0.3756    1.0117    0.0000 C   0  0  0  0  0  0  0  0  0  0  0  0
    2.1989    0.3839    0.0000 C   0  0  0  0  0  0  0  0  0  0  0  0
    2.1728    1.8836    0.0000 O   0  0  0  0  0  0  0  0  0  0  0  0
    3.5109   -0.3434    0.0000 O   0  0  0  0  0  0  0  0  0  0  0  0
  1  2  1  0
  2  3  1  0
  3  4  1  0
  4  5  1  0
  5  6  1  0
  5  7  1  0
  5  8  1  0
  8  9  1  0
  2 10  1  0
 10 11  2  0
 10 12  1  0
  9  2  1  0
M  END
>  <rName>  (869) 
Ac6c_52F

>  <PQ_SYMBOL>  (869) 
Ac6c_52F

>  <FULL_NAME>  (869) 
1-Amino-4,4-difluorocyclohexane-1-carboxylic acid

>  <IUPAC_CONDENSED>  (869) 
Ac6c(5-2F)

>  <IUPAC>  (869) 
1-amino-4,4-difluorocyclohexanecarboxylic acid

>  <TYPE>  (869) 
Backbone

>  <CLASS>  (869) 
alpha

>  <ANALOG>  (869) 
X

>  <MOL_WT>  (869) 
179.166

>  <LOGP>  (869) 
0.9778

>  <TPSA>  (869) 
63.32000000000001

>  <POPULARITY>  (869) 
6.7

>  <PROTECTED>  (869) 
TRUE

>  <SMILES>  (869) 
NC1(CCC(F)(F)CC1)C(=O)O

>  <INCHIKEY>  (869) 
QKHFDEBCLOAUQX-UHFFFAOYSA-N

$$$$
aMePhe_4Br
     RDKit          2D

 14 14  0  0  0  0  0  0  0  0999 V2000
   -0.7614    1.4549    0.0000 N   0  0  0  0  0  0  0  0  0  0  0  0
   -1.9195    0.5015    0.0000 C   0  0  0  0  0  0  0  0  0  0  0  0
   -2.8728    1.6596    0.0000 C   0  0  0  0  0  0  0  0  0  0  0  0
   -0.9661   -0.6566    0.0000 C   0  0  0  0  0  0  0  0  0  0  0  0
    0.5135   -0.4100    0.0000 C   0  0  0  0  0  0  0  0  0  0  0  0
    1.0397    0.9947    0.0000 C   0  0  0  0  0  0  0  0  0  0  0  0
    2.5193    1.2413    0.0000 C   0  0  0  0  0  0  0  0  0  0  0  0
    3.4726    0.0832    0.0000 C   0  0  0  0  0  0  0  0  0  0  0  0
    4.9522    0.3298    0.0000 Br  0  0  0  0  0  0  0  0  0  0  0  0
    2.9464   -1.3215    0.0000 C   0  0  0  0  0  0  0  0  0  0  0  0
    1.4668   -1.5681    0.0000 C   0  0  0  0  0  0  0  0  0  0  0  0
   -3.0776   -0.4518    0.0000 C   0  0  0  0  0  0  0  0  0  0  0  0
   -4.4822    0.0744    0.0000 O   0  0  0  0  0  0  0  0  0  0  0  0
   -2.8310   -1.9314    0.0000 O   0  0  0  0  0  0  0  0  0  0  0  0
  1  2  1  0
  2  3  1  6
  2  4  1  0
  4  5  1  0
  5  6  1  0
  6  7  2  0
  7  8  1  0
  8  9  1  0
  8 10  2  0
 10 11  1  0
  2 12  1  0
 12 13  2  0
 12 14  1  0
 11  5  2  0
M  END
>  <rName>  (870) 
aMePhe_4Br

>  <PQ_SYMBOL>  (870) 
aMePhe_4Br

>  <FULL_NAME>  (870) 
4-Bromo-alpha-methyl-L-phenylalanine

>  <IUPAC_CONDENSED>  (870) 
aMePhe(4-Br)

>  <IUPAC>  (870) 
(2S)-2-amino-2-((4-bromophenyl)methyl)propanoic acid

>  <TYPE>  (870) 
Backbone

>  <CLASS>  (870) 
alpha

>  <ANALOG>  (870) 
Phe

>  <MOL_WT>  (870) 
258.11499999999995

>  <LOGP>  (870) 
1.7935999999999999

>  <TPSA>  (870) 
63.32000000000001

>  <POPULARITY>  (870) 
5.1

>  <PROTECTED>  (870) 
TRUE

>  <SMILES>  (870) 
N[C@@](C)(Cc1(ccc(Br)cc1))C(=O)O

>  <INCHIKEY>  (870) 
PEGRPUVDOKWERK-JTQLQIEISA-N

$$$$
Ac4c_33F
     RDKit          2D

 10 10  0  0  0  0  0  0  0  0999 V2000
    1.2391   -1.7021    0.0000 N   0  0  0  0  0  0  0  0  0  0  0  0
    0.4449   -0.4296    0.0000 C   0  0  0  0  0  0  0  0  0  0  0  0
   -0.8276   -1.2238    0.0000 C   0  0  0  0  0  0  0  0  0  0  0  0
   -1.6218    0.0488    0.0000 C   0  0  0  0  0  0  0  0  0  0  0  0
   -2.8943   -0.7454    0.0000 F   0  0  0  0  0  0  0  0  0  0  0  0
   -2.4159    1.3213    0.0000 F   0  0  0  0  0  0  0  0  0  0  0  0
   -0.3492    0.8429    0.0000 C   0  0  0  0  0  0  0  0  0  0  0  0
    1.7174    0.3646    0.0000 C   0  0  0  0  0  0  0  0  0  0  0  0
    1.6659    1.8637    0.0000 O   0  0  0  0  0  0  0  0  0  0  0  0
    3.0415   -0.3404    0.0000 O   0  0  0  0  0  0  0  0  0  0  0  0
  1  2  1  0
  2  3  1  0
  3  4  1  0
  4  5  1  0
  4  6  1  0
  4  7  1  0
  2  8  1  0
  8  9  2  0
  8 10  1  0
  7  2  1  0
M  END
>  <rName>  (871) 
Ac4c_33F

>  <PQ_SYMBOL>  (871) 
Ac4c_33F

>  <FULL_NAME>  (871) 
1-amino-3,3-difluorocyclobutane-1-carboxylic acid

>  <IUPAC_CONDENSED>  (871) 
Ac4c(3,3-F)

>  <IUPAC>  (871) 
1-amino-3,3-difluorocyclobutanecarboxylic acid

>  <TYPE>  (871) 
Backbone

>  <CLASS>  (871) 
alpha

>  <ANALOG>  (871) 
X

>  <MOL_WT>  (871) 
151.11200000000002

>  <LOGP>  (871) 
0.19759999999999994

>  <TPSA>  (871) 
63.32000000000001

>  <POPULARITY>  (871) 
8.1

>  <PROTECTED>  (871) 
TRUE

>  <SMILES>  (871) 
NC1(CC(F)(F)C1)C(=O)O

>  <INCHIKEY>  (871) 
KSCVQJSNYDFHOT-UHFFFAOYSA-N

$$$$
Gly_diMe
     RDKit          2D

  8  8  0  0  0  0  0  0  0  0999 V2000
    0.2785   -1.7061    0.0000 N   0  0  0  0  0  0  0  0  0  0  0  0
   -0.2785   -0.3134    0.0000 C   0  0  0  0  0  0  0  0  0  0  0  0
   -1.6713   -0.8704    0.0000 C   0  0  0  0  0  0  0  0  0  0  0  0
   -2.2283    0.5223    0.0000 N   0  0  0  0  0  0  0  0  0  0  0  0
   -0.8356    1.0794    0.0000 C   0  0  0  0  0  0  0  0  0  0  0  0
    1.1142    0.2437    0.0000 C   0  0  0  0  0  0  0  0  0  0  0  0
    1.3281    1.7284    0.0000 O   0  0  0  0  0  0  0  0  0  0  0  0
    2.2930   -0.6839    0.0000 O   0  0  0  0  0  0  0  0  0  0  0  0
  1  2  1  0
  2  3  1  0
  3  4  1  0
  4  5  1  0
  2  6  1  0
  6  7  2  0
  6  8  1  0
  5  2  1  0
M  END
>  <rName>  (872) 
Gly_diMe

>  <PQ_SYMBOL>  (872) 
Gly_diMe

>  <FULL_NAME>  (872) 
3-aminoazetidine-3-carboxylic acid

>  <IUPAC_CONDENSED>  (872) 
Gly(diMe)

>  <IUPAC>  (872) 
3-aminoazetidine-3-carboxylic acid

>  <TYPE>  (872) 
Backbone

>  <CLASS>  (872) 
alpha

>  <ANALOG>  (872) 
X

>  <MOL_WT>  (872) 
116.11999999999999

>  <LOGP>  (872) 
-1.6282999999999996

>  <TPSA>  (872) 
75.35

>  <POPULARITY>  (872) 
7.8

>  <PROTECTED>  (872) 
TRUE

>  <SMILES>  (872) 
NC1(CNC1)C(=O)O

>  <INCHIKEY>  (872) 
DFSBPJSOVRGSTO-UHFFFAOYSA-N

$$$$
aMeVal
     RDKit          2D

  9  8  0  0  0  0  0  0  0  0999 V2000
    1.0607    1.7678    0.0000 N   0  0  0  0  0  0  0  0  0  0  0  0
    0.0000    0.7071    0.0000 C   0  0  0  0  0  0  0  0  0  0  0  0
   -1.0607    1.7678    0.0000 C   0  0  0  0  0  0  0  0  0  0  0  0
    1.0607   -0.3536    0.0000 C   0  0  0  0  0  0  0  0  0  0  0  0
    2.5095    0.0347    0.0000 C   0  0  0  0  0  0  0  0  0  0  0  0
    0.6724   -1.8024    0.0000 C   0  0  0  0  0  0  0  0  0  0  0  0
   -1.0607   -0.3536    0.0000 C   0  0  0  0  0  0  0  0  0  0  0  0
   -2.5095    0.0347    0.0000 O   0  0  0  0  0  0  0  0  0  0  0  0
   -0.6724   -1.8024    0.0000 O   0  0  0  0  0  0  0  0  0  0  0  0
  1  2  1  0
  2  3  1  6
  2  4  1  0
  4  5  1  0
  4  6  1  0
  2  7  1  0
  7  8  2  0
  7  9  1  0
M  END
>  <rName>  (873) 
aMeVal

>  <PQ_SYMBOL>  (873) 
aMeVal

>  <FULL_NAME>  (873) 
alpha-methyl-L-valine

>  <IUPAC_CONDENSED>  (873) 
aMeVal

>  <IUPAC>  (873) 
(2S)-2-amino-2,3-dimethylbutanoic acid

>  <TYPE>  (873) 
Backbone

>  <CLASS>  (873) 
alpha

>  <ANALOG>  (873) 
Val

>  <MOL_WT>  (873) 
131.175

>  <LOGP>  (873) 
0.44439999999999985

>  <TPSA>  (873) 
63.32000000000001

>  <POPULARITY>  (873) 
19.5

>  <PROTECTED>  (873) 
TRUE

>  <SMILES>  (873) 
N[C@@](C)(C(C)C)C(=O)O

>  <INCHIKEY>  (873) 
GPYTYOMSQHBYTK-LURJTMIESA-N

$$$$
D-aMeVal
     RDKit          2D

  9  8  0  0  0  0  0  0  0  0999 V2000
    1.0607    1.7678    0.0000 N   0  0  0  0  0  0  0  0  0  0  0  0
    0.0000    0.7071    0.0000 C   0  0  0  0  0  0  0  0  0  0  0  0
   -1.0607    1.7678    0.0000 C   0  0  0  0  0  0  0  0  0  0  0  0
    1.0607   -0.3536    0.0000 C   0  0  0  0  0  0  0  0  0  0  0  0
    2.5095    0.0347    0.0000 C   0  0  0  0  0  0  0  0  0  0  0  0
    0.6724   -1.8024    0.0000 C   0  0  0  0  0  0  0  0  0  0  0  0
   -1.0607   -0.3536    0.0000 C   0  0  0  0  0  0  0  0  0  0  0  0
   -2.5095    0.0347    0.0000 O   0  0  0  0  0  0  0  0  0  0  0  0
   -0.6724   -1.8024    0.0000 O   0  0  0  0  0  0  0  0  0  0  0  0
  1  2  1  0
  2  3  1  1
  2  4  1  0
  4  5  1  0
  4  6  1  0
  2  7  1  0
  7  8  2  0
  7  9  1  0
M  END
>  <rName>  (874) 
D-aMeVal

>  <PQ_SYMBOL>  (874) 
D-aMeVal

>  <FULL_NAME>  (874) 
alpha-methyl-D-valine

>  <IUPAC_CONDENSED>  (874) 
D-aMeVal

>  <IUPAC>  (874) 
(2R)-2-amino-2,3-dimethylbutanoic acid

>  <TYPE>  (874) 
Backbone

>  <CLASS>  (874) 
alpha

>  <ANALOG>  (874) 
Val

>  <MOL_WT>  (874) 
131.175

>  <LOGP>  (874) 
0.44439999999999985

>  <TPSA>  (874) 
63.32000000000001

>  <POPULARITY>  (874) 
11.1

>  <PROTECTED>  (874) 
TRUE

>  <SMILES>  (874) 
N[C@](C)(C(C)C)C(=O)O

>  <INCHIKEY>  (874) 
GPYTYOMSQHBYTK-ZCFIWIBFSA-N

$$$$
D-Phe_4Br
     RDKit          2D

 13 13  0  0  0  0  0  0  0  0999 V2000
   -1.5766    1.6851    0.0000 N   0  0  0  0  0  0  0  0  0  0  0  0
   -2.0128    0.2500    0.0000 C   0  0  0  0  0  0  0  0  0  0  0  0
   -0.9880   -0.8454    0.0000 C   0  0  0  0  0  0  0  0  0  0  0  0
    0.4730   -0.5055    0.0000 C   0  0  0  0  0  0  0  0  0  0  0  0
    0.9092    0.9296    0.0000 C   0  0  0  0  0  0  0  0  0  0  0  0
    2.3702    1.2695    0.0000 C   0  0  0  0  0  0  0  0  0  0  0  0
    3.3950    0.1741    0.0000 C   0  0  0  0  0  0  0  0  0  0  0  0
    4.8560    0.5140    0.0000 Br  0  0  0  0  0  0  0  0  0  0  0  0
    2.9588   -1.2611    0.0000 C   0  0  0  0  0  0  0  0  0  0  0  0
    1.4978   -1.6009    0.0000 C   0  0  0  0  0  0  0  0  0  0  0  0
   -3.4738   -0.0899    0.0000 C   0  0  0  0  0  0  0  0  0  0  0  0
   -3.9100   -1.5250    0.0000 O   0  0  0  0  0  0  0  0  0  0  0  0
   -4.4986    1.0055    0.0000 O   0  0  0  0  0  0  0  0  0  0  0  0
  2  1  1  6
  2  3  1  0
  3  4  1  0
  4  5  1  0
  5  6  2  0
  6  7  1  0
  7  8  1  0
  7  9  2  0
  9 10  1  0
  2 11  1  0
 11 12  2  0
 11 13  1  0
 10  4  2  0
M  END
>  <rName>  (875) 
D-Phe_4Br

>  <PQ_SYMBOL>  (875) 
D-Phe_4Br

>  <FULL_NAME>  (875) 
4-bromo-D-phenylalanine

>  <IUPAC_CONDENSED>  (875) 
D-Phe(4-Br)

>  <IUPAC>  (875) 
(2R)-2-amino-3-(4-bromophenyl)propanoic acid

>  <TYPE>  (875) 
Backbone

>  <CLASS>  (875) 
alpha

>  <ANALOG>  (875) 
Phe

>  <MOL_WT>  (875) 
244.08799999999997

>  <LOGP>  (875) 
1.4035000000000002

>  <TPSA>  (875) 
63.32000000000001

>  <POPULARITY>  (875) 
16.7

>  <PROTECTED>  (875) 
TRUE

>  <SMILES>  (875) 
N[C@H](Cc1(ccc(Br)cc1))C(=O)O

>  <INCHIKEY>  (875) 
PEMUHKUIQHFMTH-MRVPVSSYSA-N

$$$$
NMe-Gaba
     RDKit          2D

  8  7  0  0  0  0  0  0  0  0999 V2000
   -2.8948    0.4455    0.0000 N   0  0  0  0  0  0  0  0  0  0  0  0
   -4.2551   -0.1865    0.0000 C   0  0  0  0  0  0  0  0  0  0  0  0
   -1.6672   -0.4165    0.0000 C   0  0  0  0  0  0  0  0  0  0  0  0
   -0.3069    0.2155    0.0000 C   0  0  0  0  0  0  0  0  0  0  0  0
    0.9207   -0.6465    0.0000 C   0  0  0  0  0  0  0  0  0  0  0  0
    2.2810   -0.0145    0.0000 C   0  0  0  0  0  0  0  0  0  0  0  0
    2.4138    1.4796    0.0000 O   0  0  0  0  0  0  0  0  0  0  0  0
    3.5085   -0.8766    0.0000 O   0  0  0  0  0  0  0  0  0  0  0  0
  1  2  1  0
  1  3  1  0
  3  4  1  0
  4  5  1  0
  5  6  1  0
  6  7  2  0
  6  8  1  0
M  END
>  <rName>  (876) 
NMe-Gaba

>  <PQ_SYMBOL>  (876) 
NMe-Gaba

>  <FULL_NAME>  (876) 
4-(methylamino)butanoic acid

>  <IUPAC_CONDENSED>  (876) 
Me-Gaba

>  <IUPAC>  (876) 
4-(methylamino)butanoic acid

>  <TYPE>  (876) 
Backbone

>  <CLASS>  (876) 
gamma

>  <ANALOG>  (876) 
Gly

>  <MOL_WT>  (876) 
117.14799999999998

>  <LOGP>  (876) 
0.07059999999999994

>  <TPSA>  (876) 
49.33

>  <POPULARITY>  (876) 
18.8

>  <PROTECTED>  (876) 
TRUE

>  <SMILES>  (876) 
N(C)CCCC(=O)O

>  <INCHIKEY>  (876) 
AOKCDAVWJLOAHG-UHFFFAOYSA-N

$$$$
D-aindol-2-ylGaba
     RDKit          2D

 17 18  0  0  0  0  0  0  0  0999 V2000
   -1.5519   -1.8191    0.0000 N   0  0  0  0  0  0  0  0  0  0  0  0
   -1.5625   -0.3191    0.0000 C   0  0  0  0  0  0  0  0  0  0  0  0
   -0.2688    0.4401    0.0000 C   0  0  0  0  0  0  0  0  0  0  0  0
    1.0355   -0.3007    0.0000 C   0  0  0  0  0  0  0  0  0  0  0  0
    1.2029   -1.7913    0.0000 C   0  0  0  0  0  0  0  0  0  0  0  0
    2.6723   -2.0928    0.0000 N   0  0  0  0  0  0  0  0  0  0  0  0
    3.4130   -0.7885    0.0000 C   0  0  0  0  0  0  0  0  0  0  0  0
    4.8780   -0.4662    0.0000 C   0  0  0  0  0  0  0  0  0  0  0  0
    5.3314    0.9636    0.0000 C   0  0  0  0  0  0  0  0  0  0  0  0
    4.3198    2.0712    0.0000 C   0  0  0  0  0  0  0  0  0  0  0  0
    2.8549    1.7489    0.0000 C   0  0  0  0  0  0  0  0  0  0  0  0
    2.4015    0.3191    0.0000 C   0  0  0  0  0  0  0  0  0  0  0  0
   -2.8668    0.4217    0.0000 C   0  0  0  0  0  0  0  0  0  0  0  0
   -4.1605   -0.3375    0.0000 C   0  0  0  0  0  0  0  0  0  0  0  0
   -5.4648    0.4033    0.0000 C   0  0  0  0  0  0  0  0  0  0  0  0
   -5.4755    1.9032    0.0000 O   0  0  0  0  0  0  0  0  0  0  0  0
   -6.7585   -0.3559    0.0000 O   0  0  0  0  0  0  0  0  0  0  0  0
  2  1  1  6
  2  3  1  0
  3  4  1  0
  4  5  2  0
  5  6  1  0
  6  7  1  0
  7  8  2  0
  8  9  1  0
  9 10  2  0
 10 11  1  0
 11 12  2  0
  2 13  1  0
 13 14  1  0
 14 15  1  0
 15 16  2  0
 15 17  1  0
 12  7  1  0
 12  4  1  0
M  END
>  <rName>  (877) 
D-aindol-2-ylGaba

>  <PQ_SYMBOL>  (877) 
D-aindol-2-ylGaba

>  <FULL_NAME>  (877) 
(4R)-4-amino-5-(1H-indol-3-yl)pentanoic acid

>  <IUPAC_CONDENSED>  (877) 
D-aindol-2-ylGaba

>  <IUPAC>  (877) 
(4R)-4-amino-5-(1H-indol-3-yl)pentanoic acid

>  <TYPE>  (877) 
Backbone

>  <CLASS>  (877) 
gamma

>  <ANALOG>  (877) 
Trp

>  <MOL_WT>  (877) 
232.28299999999996

>  <LOGP>  (877) 
1.9025000000000003

>  <TPSA>  (877) 
79.11

>  <POPULARITY>  (877) 
8.5

>  <PROTECTED>  (877) 
TRUE

>  <SMILES>  (877) 
N[C@@H](Cc2(c[nH]c1(ccccc12)))CCC(=O)O

>  <INCHIKEY>  (877) 
QJKGTQZAVYBRGG-SNVBAGLBSA-N

$$$$
D-aBnGaba
     RDKit          2D

 14 14  0  0  0  0  0  0  0  0999 V2000
   -0.2835    1.4730    0.0000 N   0  0  0  0  0  0  0  0  0  0  0  0
   -0.5669    0.0000    0.0000 C   0  0  0  0  0  0  0  0  0  0  0  0
    0.5669   -0.9820    0.0000 C   0  0  0  0  0  0  0  0  0  0  0  0
    1.9843   -0.4910    0.0000 C   0  0  0  0  0  0  0  0  0  0  0  0
    2.2678    0.9820    0.0000 C   0  0  0  0  0  0  0  0  0  0  0  0
    3.6852    1.4730    0.0000 C   0  0  0  0  0  0  0  0  0  0  0  0
    4.8190    0.4910    0.0000 C   0  0  0  0  0  0  0  0  0  0  0  0
    4.5356   -0.9820    0.0000 C   0  0  0  0  0  0  0  0  0  0  0  0
    3.1182   -1.4730    0.0000 C   0  0  0  0  0  0  0  0  0  0  0  0
   -1.9843   -0.4910    0.0000 C   0  0  0  0  0  0  0  0  0  0  0  0
   -3.1182    0.4910    0.0000 C   0  0  0  0  0  0  0  0  0  0  0  0
   -4.5356    0.0000    0.0000 C   0  0  0  0  0  0  0  0  0  0  0  0
   -4.8190   -1.4730    0.0000 O   0  0  0  0  0  0  0  0  0  0  0  0
   -5.6695    0.9820    0.0000 O   0  0  0  0  0  0  0  0  0  0  0  0
  2  1  1  1
  2  3  1  0
  3  4  1  0
  4  5  2  0
  5  6  1  0
  6  7  2  0
  7  8  1  0
  8  9  2  0
  2 10  1  0
 10 11  1  0
 11 12  1  0
 12 13  2  0
 12 14  1  0
  9  4  1  0
M  END
>  <rName>  (878) 
D-aBnGaba

>  <PQ_SYMBOL>  (878) 
D-aBnGaba

>  <FULL_NAME>  (878) 
(4R)-4-amino-5-phenylpentanoic acid

>  <IUPAC_CONDENSED>  (878) 
D-aBnGaba

>  <IUPAC>  (878) 
(4R)-4-amino-5-phenylpentanoic acid

>  <TYPE>  (878) 
Backbone

>  <CLASS>  (878) 
gamma

>  <ANALOG>  (878) 
Phe

>  <MOL_WT>  (878) 
193.24599999999992

>  <LOGP>  (878) 
1.4212

>  <TPSA>  (878) 
63.32000000000001

>  <POPULARITY>  (878) 
9.4

>  <PROTECTED>  (878) 
TRUE

>  <SMILES>  (878) 
N[C@@H](Cc1(ccccc1))CCC(=O)O

>  <INCHIKEY>  (878) 
URBAOHLJWLYLQE-SNVBAGLBSA-N

$$$$
3Abz
     RDKit          2D

 10 10  0  0  0  0  0  0  0  0999 V2000
    2.9197   -1.6440    0.0000 N   0  0  0  0  0  0  0  0  0  0  0  0
    1.8615   -0.5809    0.0000 C   0  0  0  0  0  0  0  0  0  0  0  0
    0.4117   -0.9659    0.0000 C   0  0  0  0  0  0  0  0  0  0  0  0
   -0.6466    0.0971    0.0000 C   0  0  0  0  0  0  0  0  0  0  0  0
   -0.2551    1.5451    0.0000 C   0  0  0  0  0  0  0  0  0  0  0  0
    1.1946    1.9301    0.0000 C   0  0  0  0  0  0  0  0  0  0  0  0
    2.2529    0.8671    0.0000 C   0  0  0  0  0  0  0  0  0  0  0  0
   -2.0963   -0.2879    0.0000 C   0  0  0  0  0  0  0  0  0  0  0  0
   -2.4878   -1.7359    0.0000 O   0  0  0  0  0  0  0  0  0  0  0  0
   -3.1546    0.7752    0.0000 O   0  0  0  0  0  0  0  0  0  0  0  0
  1  2  1  0
  2  3  2  0
  3  4  1  0
  4  5  2  0
  5  6  1  0
  6  7  2  0
  4  8  1  0
  8  9  2  0
  8 10  1  0
  7  2  1  0
M  END
>  <rName>  (879) 
3Abz

>  <PQ_SYMBOL>  (879) 
3Abz

>  <FULL_NAME>  (879) 
3-aminobenzoic acid

>  <IUPAC_CONDENSED>  (879) 
3Abz

>  <IUPAC>  (879) 
3-aminobenzene-1-carboxylic acid

>  <TYPE>  (879) 
Backbone

>  <CLASS>  (879) 
unknown

>  <ANALOG>  (879) 
X

>  <MOL_WT>  (879) 
137.13799999999998

>  <LOGP>  (879) 
0.9670000000000001

>  <TPSA>  (879) 
63.32000000000001

>  <POPULARITY>  (879) 
14.2

>  <PROTECTED>  (879) 
FALSE

>  <SMILES>  (879) 
Nc1cc(ccc1)C(=O)O

>  <INCHIKEY>  (879) 
XFDUHJPVQKIXHO-UHFFFAOYSA-N

$$$$
4R-amino-cyclopent-2-ene-1S-CO2H
     RDKit          2D

  9  9  0  0  0  0  0  0  0  0999 V2000
   -3.3052   -0.8467    0.0000 N   0  0  0  0  0  0  0  0  0  0  0  0
   -1.9481   -0.2077    0.0000 C   0  0  0  0  0  0  0  0  0  0  0  0
   -0.6334   -0.9301    0.0000 C   0  0  0  0  0  0  0  0  0  0  0  0
    0.4598    0.0969    0.0000 C   0  0  0  0  0  0  0  0  0  0  0  0
   -0.1792    1.4541    0.0000 C   0  0  0  0  0  0  0  0  0  0  0  0
   -1.6673    1.2657    0.0000 C   0  0  0  0  0  0  0  0  0  0  0  0
    1.9333   -0.1838    0.0000 C   0  0  0  0  0  0  0  0  0  0  0  0
    2.9132    0.9519    0.0000 O   0  0  0  0  0  0  0  0  0  0  0  0
    2.4269   -1.6003    0.0000 O   0  0  0  0  0  0  0  0  0  0  0  0
  2  1  1  1
  2  3  1  0
  3  4  1  0
  4  5  1  0
  5  6  2  0
  4  7  1  1
  7  8  2  0
  7  9  1  0
  6  2  1  0
M  END
>  <rName>  (880) 
4R-amino-cyclopent-2-ene-1S-CO2H

>  <PQ_SYMBOL>  (880) 
4R-amino-cyclopent-2-ene-1S-CO2H

>  <FULL_NAME>  (880) 
(1S,4R)-4-aminocyclopent-2-ene-1-carboxylic acid

>  <IUPAC_CONDENSED>  (880) 
4R-amino-cyclopent-2-ene-1S-CO2H

>  <IUPAC>  (880) 
(1S,4R)-4-aminocyclopent-2-ene-1-carboxylic acid

>  <TYPE>  (880) 
Backbone

>  <CLASS>  (880) 
gamma

>  <ANALOG>  (880) 
Ala

>  <MOL_WT>  (880) 
127.14299999999997

>  <LOGP>  (880) 
-0.025600000000000345

>  <TPSA>  (880) 
63.32000000000001

>  <POPULARITY>  (880) 
6.7

>  <PROTECTED>  (880) 
TRUE

>  <SMILES>  (880) 
N[C@@H]1C[C@@H](C=C1)C(=O)O

>  <INCHIKEY>  (880) 
VTCHZFWYUPZZKL-UHNVWZDZSA-N

$$$$
4S-amino-cyclopent-2-ene-1R-CO2H
     RDKit          2D

  9  9  0  0  0  0  0  0  0  0999 V2000
   -3.3052   -0.8467    0.0000 N   0  0  0  0  0  0  0  0  0  0  0  0
   -1.9481   -0.2077    0.0000 C   0  0  0  0  0  0  0  0  0  0  0  0
   -0.6334   -0.9301    0.0000 C   0  0  0  0  0  0  0  0  0  0  0  0
    0.4598    0.0969    0.0000 C   0  0  0  0  0  0  0  0  0  0  0  0
   -0.1792    1.4541    0.0000 C   0  0  0  0  0  0  0  0  0  0  0  0
   -1.6673    1.2657    0.0000 C   0  0  0  0  0  0  0  0  0  0  0  0
    1.9333   -0.1838    0.0000 C   0  0  0  0  0  0  0  0  0  0  0  0
    2.9132    0.9519    0.0000 O   0  0  0  0  0  0  0  0  0  0  0  0
    2.4269   -1.6003    0.0000 O   0  0  0  0  0  0  0  0  0  0  0  0
  2  1  1  6
  2  3  1  0
  3  4  1  0
  4  5  1  0
  5  6  2  0
  4  7  1  6
  7  8  2  0
  7  9  1  0
  6  2  1  0
M  END
>  <rName>  (881) 
4S-amino-cyclopent-2-ene-1R-CO2H

>  <PQ_SYMBOL>  (881) 
4S-amino-cyclopent-2-ene-1R-CO2H

>  <FULL_NAME>  (881) 
(1R,4S)-4-aminocyclopent-2-ene-1-carboxylic acid

>  <IUPAC_CONDENSED>  (881) 
4S-amino-cyclopent-2-ene-1R-CO2H

>  <IUPAC>  (881) 
(1R,4S)-4-aminocyclopent-2-ene-1-carboxylic acid

>  <TYPE>  (881) 
Backbone

>  <CLASS>  (881) 
gamma

>  <ANALOG>  (881) 
Ala

>  <MOL_WT>  (881) 
127.14299999999997

>  <LOGP>  (881) 
-0.025600000000000345

>  <TPSA>  (881) 
63.32000000000001

>  <POPULARITY>  (881) 
6.9

>  <PROTECTED>  (881) 
TRUE

>  <SMILES>  (881) 
N[C@H]1C[C@H](C=C1)C(=O)O

>  <INCHIKEY>  (881) 
VTCHZFWYUPZZKL-CRCLSJGQSA-N

$$$$
azetidin-3-ylAc
     RDKit          2D

  8  8  0  0  0  0  0  0  0  0999 V2000
   -2.7656   -0.3874    0.0000 N   0  0  0  0  0  0  0  0  0  0  0  0
   -2.1656    0.9874    0.0000 C   0  0  0  0  0  0  0  0  0  0  0  0
   -0.7908    0.3874    0.0000 C   0  0  0  0  0  0  0  0  0  0  0  0
   -1.3908   -0.9874    0.0000 C   0  0  0  0  0  0  0  0  0  0  0  0
    0.6055    0.9353    0.0000 C   0  0  0  0  0  0  0  0  0  0  0  0
    1.7782   -0.0000    0.0000 C   0  0  0  0  0  0  0  0  0  0  0  0
    1.5545   -1.4832    0.0000 O   0  0  0  0  0  0  0  0  0  0  0  0
    3.1746    0.5479    0.0000 O   0  0  0  0  0  0  0  0  0  0  0  0
  1  2  1  0
  2  3  1  0
  3  4  1  0
  3  5  1  0
  5  6  1  0
  6  7  2  0
  6  8  1  0
  4  1  1  0
M  END
>  <rName>  (882) 
azetidin-3-ylAc

>  <PQ_SYMBOL>  (882) 
azetidin-3-ylAc

>  <FULL_NAME>  (882) 
2-(azetidin-3-yl)acetic acid

>  <IUPAC_CONDENSED>  (882) 
azetidin-3-ylAc

>  <IUPAC>  (882) 
2-(azetidin-3-yl)acetic acid

>  <TYPE>  (882) 
Backbone

>  <CLASS>  (882) 
gamma

>  <ANALOG>  (882) 
Ala

>  <MOL_WT>  (882) 
115.13199999999999

>  <LOGP>  (882) 
-0.31949999999999995

>  <TPSA>  (882) 
49.33

>  <POPULARITY>  (882) 
10.8

>  <PROTECTED>  (882) 
TRUE

>  <SMILES>  (882) 
N1CC(C1)CC(=O)O

>  <INCHIKEY>  (882) 
SCBDSTCOJNNUCN-UHFFFAOYSA-N

$$$$
3S-amino-cyclopentane-1R-CO2H
     RDKit          2D

  9  9  0  0  0  0  0  0  0  0999 V2000
   -3.3052   -0.8467    0.0000 N   0  0  0  0  0  0  0  0  0  0  0  0
   -1.9481   -0.2077    0.0000 C   0  0  0  0  0  0  0  0  0  0  0  0
   -0.6334   -0.9301    0.0000 C   0  0  0  0  0  0  0  0  0  0  0  0
    0.4598    0.0969    0.0000 C   0  0  0  0  0  0  0  0  0  0  0  0
   -0.1792    1.4541    0.0000 C   0  0  0  0  0  0  0  0  0  0  0  0
   -1.6673    1.2657    0.0000 C   0  0  0  0  0  0  0  0  0  0  0  0
    1.9333   -0.1838    0.0000 C   0  0  0  0  0  0  0  0  0  0  0  0
    2.9132    0.9519    0.0000 O   0  0  0  0  0  0  0  0  0  0  0  0
    2.4269   -1.6003    0.0000 O   0  0  0  0  0  0  0  0  0  0  0  0
  2  1  1  1
  2  3  1  0
  3  4  1  0
  4  5  1  0
  5  6  1  0
  4  7  1  1
  7  8  2  0
  7  9  1  0
  6  2  1  0
M  END
>  <rName>  (883) 
3S-amino-cyclopentane-1R-CO2H

>  <PQ_SYMBOL>  (883) 
3S-amino-cyclopentane-1R-CO2H

>  <FULL_NAME>  (883) 
(1R,3S)-3-aminocyclopentane-1-carboxylic acid

>  <IUPAC_CONDENSED>  (883) 
3S-amino-cyclopentane-1R-CO2H

>  <IUPAC>  (883) 
(1R,3S)-3-aminocyclopentanecarboxylic acid

>  <TYPE>  (883) 
Backbone

>  <CLASS>  (883) 
gamma

>  <ANALOG>  (883) 
Ala

>  <MOL_WT>  (883) 
129.15900000000002

>  <LOGP>  (883) 
0.19839999999999985

>  <TPSA>  (883) 
63.32000000000001

>  <POPULARITY>  (883) 
11.1

>  <PROTECTED>  (883) 
TRUE

>  <SMILES>  (883) 
N[C@@H]1C[C@@H](CC1)C(=O)O

>  <INCHIKEY>  (883) 
MLLSSTJTARJLHK-UHNVWZDZSA-N

$$$$
Inp
     RDKit          2D

  9  9  0  0  0  0  0  0  0  0999 V2000
    2.6667   -0.0000    0.0000 N   0  0  0  0  0  0  0  0  0  0  0  0
    1.9167   -1.2990    0.0000 C   0  0  0  0  0  0  0  0  0  0  0  0
    0.4167   -1.2990    0.0000 C   0  0  0  0  0  0  0  0  0  0  0  0
   -0.3333    0.0000    0.0000 C   0  0  0  0  0  0  0  0  0  0  0  0
    0.4167    1.2990    0.0000 C   0  0  0  0  0  0  0  0  0  0  0  0
    1.9167    1.2990    0.0000 C   0  0  0  0  0  0  0  0  0  0  0  0
   -1.8333    0.0000    0.0000 C   0  0  0  0  0  0  0  0  0  0  0  0
   -2.5833   -1.2990    0.0000 O   0  0  0  0  0  0  0  0  0  0  0  0
   -2.5833    1.2990    0.0000 O   0  0  0  0  0  0  0  0  0  0  0  0
  1  2  1  0
  2  3  1  0
  3  4  1  0
  4  5  1  0
  5  6  1  0
  4  7  1  0
  7  8  2  0
  7  9  1  0
  6  1  1  0
M  END
>  <rName>  (884) 
Inp

>  <PQ_SYMBOL>  (884) 
Inp

>  <FULL_NAME>  (884) 
Isonipecotic acid

>  <IUPAC_CONDENSED>  (884) 
Inp

>  <IUPAC>  (884) 
piperidine-4-carboxylic acid

>  <TYPE>  (884) 
Backbone

>  <CLASS>  (884) 
gamma

>  <ANALOG>  (884) 
Pro

>  <MOL_WT>  (884) 
129.15900000000002

>  <LOGP>  (884) 
0.07059999999999994

>  <TPSA>  (884) 
49.33

>  <POPULARITY>  (884) 
18.2

>  <PROTECTED>  (884) 
TRUE

>  <SMILES>  (884) 
N1CCC(CC1)C(=O)O

>  <INCHIKEY>  (884) 
SRJOCJYGOFTFLH-UHFFFAOYSA-N

$$$$
Gaba_22diMe
     RDKit          2D

  9  8  0  0  0  0  0  0  0  0999 V2000
   -3.7229    0.0367    0.0000 N   0  0  0  0  0  0  0  0  0  0  0  0
   -2.2832   -0.3846    0.0000 C   0  0  0  0  0  0  0  0  0  0  0  0
   -1.1986    0.6515    0.0000 C   0  0  0  0  0  0  0  0  0  0  0  0
    0.2410    0.2302    0.0000 C   0  0  0  0  0  0  0  0  0  0  0  0
    0.6623    1.6699    0.0000 C   0  0  0  0  0  0  0  0  0  0  0  0
   -0.1803   -1.2094    0.0000 C   0  0  0  0  0  0  0  0  0  0  0  0
    1.6807   -0.1911    0.0000 C   0  0  0  0  0  0  0  0  0  0  0  0
    2.7653    0.8450    0.0000 O   0  0  0  0  0  0  0  0  0  0  0  0
    2.0356   -1.6484    0.0000 O   0  0  0  0  0  0  0  0  0  0  0  0
  1  2  1  0
  2  3  1  0
  3  4  1  0
  4  5  1  0
  4  6  1  0
  4  7  1  0
  7  8  2  0
  7  9  1  0
M  END
>  <rName>  (885) 
Gaba_22diMe

>  <PQ_SYMBOL>  (885) 
Gaba_22diMe

>  <FULL_NAME>  (885) 
4-amino-2,2-dimethylbutanoic acid

>  <IUPAC_CONDENSED>  (885) 
Gaba(2,2-diMe)

>  <IUPAC>  (885) 
4-amino-2,2-dimethylbutanoic acid

>  <TYPE>  (885) 
Backbone

>  <CLASS>  (885) 
gamma

>  <ANALOG>  (885) 
Ala

>  <MOL_WT>  (885) 
131.17499999999998

>  <LOGP>  (885) 
0.4460000000000001

>  <TPSA>  (885) 
63.32000000000001

>  <POPULARITY>  (885) 
16.8

>  <PROTECTED>  (885) 
TRUE

>  <SMILES>  (885) 
NCCC(C)(C)C(=O)O

>  <INCHIKEY>  (885) 
SBEOMMHBZTWQLR-UHFFFAOYSA-N

$$$$
aMeaMeGaba
     RDKit          2D

  9  8  0  0  0  0  0  0  0  0999 V2000
    3.1812   -0.4910    0.0000 N   0  0  0  0  0  0  0  0  0  0  0  0
    1.7638    0.0000    0.0000 C   0  0  0  0  0  0  0  0  0  0  0  0
    2.2548    1.4174    0.0000 C   0  0  0  0  0  0  0  0  0  0  0  0
    1.2728   -1.4174    0.0000 C   0  0  0  0  0  0  0  0  0  0  0  0
    0.3465    0.4910    0.0000 C   0  0  0  0  0  0  0  0  0  0  0  0
   -0.7874   -0.4910    0.0000 C   0  0  0  0  0  0  0  0  0  0  0  0
   -2.2048   -0.0000    0.0000 C   0  0  0  0  0  0  0  0  0  0  0  0
   -2.4883    1.4730    0.0000 O   0  0  0  0  0  0  0  0  0  0  0  0
   -3.3387   -0.9820    0.0000 O   0  0  0  0  0  0  0  0  0  0  0  0
  1  2  1  0
  2  3  1  0
  2  4  1  0
  2  5  1  0
  5  6  1  0
  6  7  1  0
  7  8  2  0
  7  9  1  0
M  END
>  <rName>  (886) 
aMeaMeGaba

>  <PQ_SYMBOL>  (886) 
aMeaMeGaba

>  <FULL_NAME>  (886) 
4-amino-4-methylpentanoic acid

>  <IUPAC_CONDENSED>  (886) 
aMeaMeGaba

>  <IUPAC>  (886) 
4-amino-4-methylpentanoic acid

>  <TYPE>  (886) 
Backbone

>  <CLASS>  (886) 
gamma

>  <ANALOG>  (886) 
Ala

>  <MOL_WT>  (886) 
131.175

>  <LOGP>  (886) 
0.5884999999999998

>  <TPSA>  (886) 
63.32000000000001

>  <POPULARITY>  (886) 
13.8

>  <PROTECTED>  (886) 
TRUE

>  <SMILES>  (886) 
NC(C)(C)CCC(=O)O

>  <INCHIKEY>  (886) 
FZNOWMWZNCOYIJ-UHFFFAOYSA-N

$$$$
3S-amino-cyclohexane-1R-CO2H
     RDKit          2D

 10 10  0  0  0  0  0  0  0  0999 V2000
    2.9197   -1.6440    0.0000 N   0  0  0  0  0  0  0  0  0  0  0  0
    1.8615   -0.5809    0.0000 C   0  0  0  0  0  0  0  0  0  0  0  0
    0.4117   -0.9659    0.0000 C   0  0  0  0  0  0  0  0  0  0  0  0
   -0.6466    0.0971    0.0000 C   0  0  0  0  0  0  0  0  0  0  0  0
   -0.2551    1.5451    0.0000 C   0  0  0  0  0  0  0  0  0  0  0  0
    1.1946    1.9301    0.0000 C   0  0  0  0  0  0  0  0  0  0  0  0
    2.2529    0.8671    0.0000 C   0  0  0  0  0  0  0  0  0  0  0  0
   -2.0963   -0.2879    0.0000 C   0  0  0  0  0  0  0  0  0  0  0  0
   -2.4878   -1.7359    0.0000 O   0  0  0  0  0  0  0  0  0  0  0  0
   -3.1546    0.7752    0.0000 O   0  0  0  0  0  0  0  0  0  0  0  0
  2  1  1  6
  2  3  1  0
  3  4  1  0
  4  5  1  0
  5  6  1  0
  6  7  1  0
  4  8  1  6
  8  9  2  0
  8 10  1  0
  7  2  1  0
M  END
>  <rName>  (887) 
3S-amino-cyclohexane-1R-CO2H

>  <PQ_SYMBOL>  (887) 
3S-amino-cyclohexane-1R-CO2H

>  <FULL_NAME>  (887) 
(1R,3S)-3-aminocyclohexane-1-carboxylic acid

>  <IUPAC_CONDENSED>  (887) 
3S-amino-cyclohexane-1R-CO2H

>  <IUPAC>  (887) 
(1R,3S)-3-aminocyclohexanecarboxylic acid

>  <TYPE>  (887) 
Backbone

>  <CLASS>  (887) 
gamma

>  <ANALOG>  (887) 
Val

>  <MOL_WT>  (887) 
143.186

>  <LOGP>  (887) 
0.5884999999999998

>  <TPSA>  (887) 
63.32000000000001

>  <POPULARITY>  (887) 
8.9

>  <PROTECTED>  (887) 
TRUE

>  <SMILES>  (887) 
N[C@@H]1C[C@@H](CCC1)C(=O)O

>  <INCHIKEY>  (887) 
CKTUXQBZPWBFDX-RITPCOANSA-N

$$$$
piperidin-3R-ylAc
     RDKit          2D

 10 10  0  0  0  0  0  0  0  0999 V2000
    2.7213   -0.9820    0.0000 N   0  0  0  0  0  0  0  0  0  0  0  0
    1.3040   -1.4730    0.0000 C   0  0  0  0  0  0  0  0  0  0  0  0
    0.1701   -0.4910    0.0000 C   0  0  0  0  0  0  0  0  0  0  0  0
    0.4536    0.9820    0.0000 C   0  0  0  0  0  0  0  0  0  0  0  0
    1.8709    1.4730    0.0000 C   0  0  0  0  0  0  0  0  0  0  0  0
    3.0048    0.4910    0.0000 C   0  0  0  0  0  0  0  0  0  0  0  0
   -1.2473   -0.9820    0.0000 C   0  0  0  0  0  0  0  0  0  0  0  0
   -2.3812    0.0000    0.0000 C   0  0  0  0  0  0  0  0  0  0  0  0
   -2.0977    1.4730    0.0000 O   0  0  0  0  0  0  0  0  0  0  0  0
   -3.7985   -0.4910    0.0000 O   0  0  0  0  0  0  0  0  0  0  0  0
  1  2  1  0
  2  3  1  0
  3  4  1  0
  4  5  1  0
  5  6  1  0
  3  7  1  1
  7  8  1  0
  8  9  2  0
  8 10  1  0
  6  1  1  0
M  END
>  <rName>  (888) 
piperidin-3R-ylAc

>  <PQ_SYMBOL>  (888) 
piperidin-3R-ylAc

>  <FULL_NAME>  (888) 
2-[(3R)-piperidin-3-yl]acetic acid

>  <IUPAC_CONDENSED>  (888) 
piperidin-3R-ylAc

>  <IUPAC>  (888) 
2-((3R)-piperidin-3-yl)acetic acid

>  <TYPE>  (888) 
Backbone

>  <CLASS>  (888) 
gamma

>  <ANALOG>  (888) 
Pro

>  <MOL_WT>  (888) 
143.186

>  <LOGP>  (888) 
0.46069999999999983

>  <TPSA>  (888) 
49.33

>  <POPULARITY>  (888) 
10.1

>  <PROTECTED>  (888) 
TRUE

>  <SMILES>  (888) 
N1C[C@H](CCC1)CC(=O)O

>  <INCHIKEY>  (888) 
WKXRHAACRPUBIC-ZCFIWIBFSA-N

$$$$
Ala_tetrahydropyran4yl
     RDKit          2D

 12 12  0  0  0  0  0  0  0  0999 V2000
   -1.2391    1.6805    0.0000 N   0  0  0  0  0  0  0  0  0  0  0  0
   -1.6184    0.2292    0.0000 C   0  0  0  0  0  0  0  0  0  0  0  0
   -0.5513   -0.8249    0.0000 C   0  0  0  0  0  0  0  0  0  0  0  0
    0.8952   -0.4278    0.0000 C   0  0  0  0  0  0  0  0  0  0  0  0
    1.2745    1.0235    0.0000 C   0  0  0  0  0  0  0  0  0  0  0  0
    2.7210    1.4206    0.0000 C   0  0  0  0  0  0  0  0  0  0  0  0
    3.7882    0.3665    0.0000 O   0  0  0  0  0  0  0  0  0  0  0  0
    3.4088   -1.0848    0.0000 C   0  0  0  0  0  0  0  0  0  0  0  0
    1.9624   -1.4819    0.0000 C   0  0  0  0  0  0  0  0  0  0  0  0
   -3.0649   -0.1679    0.0000 C   0  0  0  0  0  0  0  0  0  0  0  0
   -3.4442   -1.6191    0.0000 O   0  0  0  0  0  0  0  0  0  0  0  0
   -4.1321    0.8862    0.0000 O   0  0  0  0  0  0  0  0  0  0  0  0
  2  1  1  1
  2  3  1  0
  3  4  1  0
  4  5  1  0
  5  6  1  0
  6  7  1  0
  7  8  1  0
  8  9  1  0
  2 10  1  0
 10 11  2  0
 10 12  1  0
  9  4  1  0
M  END
>  <rName>  (889) 
Ala_tetrahydropyran4yl

>  <PQ_SYMBOL>  (889) 
Ala_tetrahydropyran4yl

>  <FULL_NAME>  (889) 
(2S)-2-amino-3-(oxan-4-yl)propanoic acid

>  <IUPAC_CONDENSED>  (889) 
Ala(tetrahydropyran-4-yl)

>  <IUPAC>  (889) 
(2S)-2-amino-3-(oxan-4-yl)propanoic acid

>  <TYPE>  (889) 
Backbone

>  <CLASS>  (889) 
alpha

>  <ANALOG>  (889) 
X

>  <MOL_WT>  (889) 
173.212

>  <LOGP>  (889) 
0.2149999999999998

>  <TPSA>  (889) 
72.55

>  <POPULARITY>  (889) 
7.5

>  <PROTECTED>  (889) 
TRUE

>  <SMILES>  (889) 
N[C@@H](CC1(CCOCC1))C(=O)O

>  <INCHIKEY>  (889) 
JSHHRIISICNOLM-ZETCQYMHSA-N

$$$$
Ala_4piperidyl
     RDKit          2D

 12 12  0  0  0  0  0  0  0  0999 V2000
   -1.2391    1.6805    0.0000 N   0  0  0  0  0  0  0  0  0  0  0  0
   -1.6184    0.2292    0.0000 C   0  0  0  0  0  0  0  0  0  0  0  0
   -0.5513   -0.8249    0.0000 C   0  0  0  0  0  0  0  0  0  0  0  0
    0.8952   -0.4278    0.0000 C   0  0  0  0  0  0  0  0  0  0  0  0
    1.2745    1.0235    0.0000 C   0  0  0  0  0  0  0  0  0  0  0  0
    2.7210    1.4206    0.0000 C   0  0  0  0  0  0  0  0  0  0  0  0
    3.7882    0.3665    0.0000 N   0  0  0  0  0  0  0  0  0  0  0  0
    3.4088   -1.0848    0.0000 C   0  0  0  0  0  0  0  0  0  0  0  0
    1.9624   -1.4819    0.0000 C   0  0  0  0  0  0  0  0  0  0  0  0
   -3.0649   -0.1679    0.0000 C   0  0  0  0  0  0  0  0  0  0  0  0
   -3.4442   -1.6191    0.0000 O   0  0  0  0  0  0  0  0  0  0  0  0
   -4.1321    0.8862    0.0000 O   0  0  0  0  0  0  0  0  0  0  0  0
  2  1  1  1
  2  3  1  0
  3  4  1  0
  4  5  1  0
  5  6  1  0
  6  7  1  0
  7  8  1  0
  8  9  1  0
  2 10  1  0
 10 11  2  0
 10 12  1  0
  9  4  1  0
M  END
>  <rName>  (890) 
Ala_4piperidyl

>  <PQ_SYMBOL>  (890) 
Ala_4piperidyl

>  <FULL_NAME>  (890) 
3-(4-Piperidinyl)-L-alanine

>  <IUPAC_CONDENSED>  (890) 
Ala(4-piperidyl)

>  <IUPAC>  (890) 
(2S)-2-amino-3-(piperidin-4-yl)propanoic acid

>  <TYPE>  (890) 
Backbone

>  <CLASS>  (890) 
alpha

>  <ANALOG>  (890) 
Lys

>  <MOL_WT>  (890) 
172.228

>  <LOGP>  (890) 
-0.21200000000000047

>  <TPSA>  (890) 
75.35

>  <POPULARITY>  (890) 
10.2

>  <PROTECTED>  (890) 
TRUE

>  <SMILES>  (890) 
N[C@@H](CC1(CCNCC1))C(=O)O

>  <INCHIKEY>  (890) 
VVDNQYDGDFYGMM-ZETCQYMHSA-N

$$$$
Ala_piperazin1yl
     RDKit          2D

 12 12  0  0  0  0  0  0  0  0999 V2000
   -1.2391    1.6805    0.0000 N   0  0  0  0  0  0  0  0  0  0  0  0
   -1.6184    0.2292    0.0000 C   0  0  0  0  0  0  0  0  0  0  0  0
   -0.5513   -0.8249    0.0000 C   0  0  0  0  0  0  0  0  0  0  0  0
    0.8952   -0.4278    0.0000 N   0  0  0  0  0  0  0  0  0  0  0  0
    1.2745    1.0235    0.0000 C   0  0  0  0  0  0  0  0  0  0  0  0
    2.7210    1.4206    0.0000 C   0  0  0  0  0  0  0  0  0  0  0  0
    3.7882    0.3665    0.0000 N   0  0  0  0  0  0  0  0  0  0  0  0
    3.4088   -1.0848    0.0000 C   0  0  0  0  0  0  0  0  0  0  0  0
    1.9624   -1.4819    0.0000 C   0  0  0  0  0  0  0  0  0  0  0  0
   -3.0649   -0.1679    0.0000 C   0  0  0  0  0  0  0  0  0  0  0  0
   -3.4442   -1.6191    0.0000 O   0  0  0  0  0  0  0  0  0  0  0  0
   -4.1321    0.8862    0.0000 O   0  0  0  0  0  0  0  0  0  0  0  0
  2  1  1  1
  2  3  1  0
  3  4  1  0
  4  5  1  0
  5  6  1  0
  6  7  1  0
  7  8  1  0
  8  9  1  0
  2 10  1  0
 10 11  2  0
 10 12  1  0
  9  4  1  0
M  END
>  <rName>  (891) 
Ala_piperazin1yl

>  <PQ_SYMBOL>  (891) 
Ala_piperazin1yl

>  <FULL_NAME>  (891) 
3-piperazino-L-alanine

>  <IUPAC_CONDENSED>  (891) 
Ala(piperazin-1-yl)

>  <IUPAC>  (891) 
(2S)-2-amino-3-(piperazin-1-yl)propanoic acid

>  <TYPE>  (891) 
Backbone

>  <CLASS>  (891) 
alpha

>  <ANALOG>  (891) 
X

>  <MOL_WT>  (891) 
173.21599999999998

>  <LOGP>  (891) 
-1.696499999999998

>  <TPSA>  (891) 
78.59

>  <POPULARITY>  (891) 
6.2

>  <PROTECTED>  (891) 
TRUE

>  <SMILES>  (891) 
N[C@@H](CN1(CCNCC1))C(=O)O

>  <INCHIKEY>  (891) 
GCKHCMMDWJZKBQ-LURJTMIESA-N

$$$$
NMe-bAla
     RDKit          2D

  7  6  0  0  0  0  0  0  0  0999 V2000
    2.2602   -0.5139    0.0000 N   0  0  0  0  0  0  0  0  0  0  0  0
    3.5140    0.3095    0.0000 C   0  0  0  0  0  0  0  0  0  0  0  0
    0.9202    0.1603    0.0000 C   0  0  0  0  0  0  0  0  0  0  0  0
   -0.3336   -0.6631    0.0000 C   0  0  0  0  0  0  0  0  0  0  0  0
   -1.6736    0.0110    0.0000 C   0  0  0  0  0  0  0  0  0  0  0  0
   -1.7598    1.5085    0.0000 O   0  0  0  0  0  0  0  0  0  0  0  0
   -2.9274   -0.8124    0.0000 O   0  0  0  0  0  0  0  0  0  0  0  0
  1  2  1  0
  1  3  1  0
  3  4  1  0
  4  5  1  0
  5  6  2  0
  5  7  1  0
M  END
>  <rName>  (892) 
NMe-bAla

>  <PQ_SYMBOL>  (892) 
NMe-bAla

>  <FULL_NAME>  (892) 
N-methyl-beta-Alanine

>  <IUPAC_CONDENSED>  (892) 
Me-bAla

>  <IUPAC>  (892) 
3-(methylamino)propanoic acid

>  <TYPE>  (892) 
Backbone

>  <CLASS>  (892) 
beta

>  <ANALOG>  (892) 
Gly

>  <MOL_WT>  (892) 
103.12099999999998

>  <LOGP>  (892) 
-0.31949999999999995

>  <TPSA>  (892) 
49.33

>  <POPULARITY>  (892) 
18.9

>  <PROTECTED>  (892) 
TRUE

>  <SMILES>  (892) 
N(C)CCC(=O)O

>  <INCHIKEY>  (892) 
VDIPNVCWMXZNFY-UHFFFAOYSA-N

$$$$
aMeOrn
     RDKit          2D

 10  9  0  0  0  0  0  0  0  0999 V2000
    0.0056    1.7744    0.0000 N   0  0  0  0  0  0  0  0  0  0  0  0
   -0.8858    0.5680    0.0000 C   0  0  0  0  0  0  0  0  0  0  0  0
   -2.0922    1.4594    0.0000 C   0  0  0  0  0  0  0  0  0  0  0  0
    0.3205   -0.3234    0.0000 C   0  0  0  0  0  0  0  0  0  0  0  0
    1.6957    0.2756    0.0000 C   0  0  0  0  0  0  0  0  0  0  0  0
    2.9021   -0.6158    0.0000 C   0  0  0  0  0  0  0  0  0  0  0  0
    4.2773   -0.0167    0.0000 N   0  0  0  0  0  0  0  0  0  0  0  0
   -1.7773   -0.6384    0.0000 C   0  0  0  0  0  0  0  0  0  0  0  0
   -3.2677   -0.4696    0.0000 O   0  0  0  0  0  0  0  0  0  0  0  0
   -1.1782   -2.0136    0.0000 O   0  0  0  0  0  0  0  0  0  0  0  0
  1  2  1  0
  2  3  1  6
  2  4  1  0
  4  5  1  0
  5  6  1  0
  6  7  1  0
  2  8  1  0
  8  9  2  0
  8 10  1  0
M  END
>  <rName>  (893) 
aMeOrn

>  <PQ_SYMBOL>  (893) 
aMeOrn

>  <FULL_NAME>  (893) 
alpha-Methyl-L-Ornithine

>  <IUPAC_CONDENSED>  (893) 
aMeOrn

>  <IUPAC>  (893) 
(2S)-2,5-diamino-2-methylpentanoic acid

>  <TYPE>  (893) 
Backbone

>  <CLASS>  (893) 
alpha

>  <ANALOG>  (893) 
Lys

>  <MOL_WT>  (893) 
146.19000000000003

>  <LOGP>  (893) 
-0.4727000000000004

>  <TPSA>  (893) 
89.34

>  <POPULARITY>  (893) 
9.9

>  <PROTECTED>  (893) 
TRUE

>  <SMILES>  (893) 
N[C@@](C)(CCCN)C(=O)O

>  <INCHIKEY>  (893) 
LNDPCYHWPSQBCA-LURJTMIESA-N

$$$$
D-aMeOrn
     RDKit          2D

 10  9  0  0  0  0  0  0  0  0999 V2000
    0.0056    1.7744    0.0000 N   0  0  0  0  0  0  0  0  0  0  0  0
   -0.8858    0.5680    0.0000 C   0  0  0  0  0  0  0  0  0  0  0  0
   -2.0922    1.4594    0.0000 C   0  0  0  0  0  0  0  0  0  0  0  0
    0.3205   -0.3234    0.0000 C   0  0  0  0  0  0  0  0  0  0  0  0
    1.6957    0.2756    0.0000 C   0  0  0  0  0  0  0  0  0  0  0  0
    2.9021   -0.6158    0.0000 C   0  0  0  0  0  0  0  0  0  0  0  0
    4.2773   -0.0167    0.0000 N   0  0  0  0  0  0  0  0  0  0  0  0
   -1.7773   -0.6384    0.0000 C   0  0  0  0  0  0  0  0  0  0  0  0
   -3.2677   -0.4696    0.0000 O   0  0  0  0  0  0  0  0  0  0  0  0
   -1.1782   -2.0136    0.0000 O   0  0  0  0  0  0  0  0  0  0  0  0
  1  2  1  0
  2  3  1  1
  2  4  1  0
  4  5  1  0
  5  6  1  0
  6  7  1  0
  2  8  1  0
  8  9  2  0
  8 10  1  0
M  END
>  <rName>  (894) 
D-aMeOrn

>  <PQ_SYMBOL>  (894) 
D-aMeOrn

>  <FULL_NAME>  (894) 
alpha-Methyl-D-Ornithine

>  <IUPAC_CONDENSED>  (894) 
D-aMeOrn

>  <IUPAC>  (894) 
(2R)-2,5-diamino-2-methylpentanoic acid

>  <TYPE>  (894) 
Backbone

>  <CLASS>  (894) 
alpha

>  <ANALOG>  (894) 
Lys

>  <MOL_WT>  (894) 
146.19000000000003

>  <LOGP>  (894) 
-0.4727000000000004

>  <TPSA>  (894) 
89.34

>  <POPULARITY>  (894) 
11

>  <PROTECTED>  (894) 
TRUE

>  <SMILES>  (894) 
N[C@](C)(CCCN)C(=O)O

>  <INCHIKEY>  (894) 
LNDPCYHWPSQBCA-ZCFIWIBFSA-N

$$$$
NPh-G
     RDKit          2D

 11 11  0  0  0  0  0  0  0  0999 V2000
   -0.6853   -0.6503    0.0000 N   0  0  0  0  0  0  0  0  0  0  0  0
    0.7732   -0.3002    0.0000 C   0  0  0  0  0  0  0  0  0  0  0  0
    1.1993    1.1380    0.0000 C   0  0  0  0  0  0  0  0  0  0  0  0
    2.6579    1.4881    0.0000 C   0  0  0  0  0  0  0  0  0  0  0  0
    3.6904    0.4000    0.0000 C   0  0  0  0  0  0  0  0  0  0  0  0
    3.2643   -1.0382    0.0000 C   0  0  0  0  0  0  0  0  0  0  0  0
    1.8057   -1.3883    0.0000 C   0  0  0  0  0  0  0  0  0  0  0  0
   -1.7178    0.4378    0.0000 C   0  0  0  0  0  0  0  0  0  0  0  0
   -3.1764    0.0877    0.0000 C   0  0  0  0  0  0  0  0  0  0  0  0
   -3.6025   -1.3505    0.0000 O   0  0  0  0  0  0  0  0  0  0  0  0
   -4.2089    1.1758    0.0000 O   0  0  0  0  0  0  0  0  0  0  0  0
  1  2  1  0
  2  3  2  0
  3  4  1  0
  4  5  2  0
  5  6  1  0
  6  7  2  0
  1  8  1  0
  8  9  1  0
  9 10  2  0
  9 11  1  0
  7  2  1  0
M  END
>  <rName>  (895) 
NPh-G

>  <PQ_SYMBOL>  (895) 
NPh-G

>  <FULL_NAME>  (895) 
N-Phenylglycine

>  <IUPAC_CONDENSED>  (895) 
N-Ph-Gly

>  <IUPAC>  (895) 
2-(phenylamino)acetic acid

>  <TYPE>  (895) 
Backbone

>  <CLASS>  (895) 
alpha

>  <ANALOG>  (895) 
Gly

>  <MOL_WT>  (895) 
151.165

>  <LOGP>  (895) 
1.1830999999999998

>  <TPSA>  (895) 
49.33

>  <POPULARITY>  (895) 
22.2

>  <PROTECTED>  (895) 
TRUE

>  <SMILES>  (895) 
N(c1(ccccc1))CC(=O)O

>  <INCHIKEY>  (895) 
NPKSPKHJBVJUKB-UHFFFAOYSA-N

$$$$
D-Ser_Bn
     RDKit          2D

 14 14  0  0  0  0  0  0  0  0999 V2000
   -2.7125    1.8435    0.0000 N   0  0  0  0  0  0  0  0  0  0  0  0
   -2.9490    0.3623    0.0000 C   0  0  0  0  0  0  0  0  0  0  0  0
   -1.7844   -0.5831    0.0000 C   0  0  0  0  0  0  0  0  0  0  0  0
   -0.3834   -0.0473    0.0000 O   0  0  0  0  0  0  0  0  0  0  0  0
    0.7812   -0.9927    0.0000 C   0  0  0  0  0  0  0  0  0  0  0  0
    2.1822   -0.4569    0.0000 C   0  0  0  0  0  0  0  0  0  0  0  0
    2.4187    1.0244    0.0000 C   0  0  0  0  0  0  0  0  0  0  0  0
    3.8197    1.5602    0.0000 C   0  0  0  0  0  0  0  0  0  0  0  0
    4.9842    0.6148    0.0000 C   0  0  0  0  0  0  0  0  0  0  0  0
    4.7478   -0.8664    0.0000 C   0  0  0  0  0  0  0  0  0  0  0  0
    3.3467   -1.4023    0.0000 C   0  0  0  0  0  0  0  0  0  0  0  0
   -4.3500   -0.1735    0.0000 C   0  0  0  0  0  0  0  0  0  0  0  0
   -4.5865   -1.6548    0.0000 O   0  0  0  0  0  0  0  0  0  0  0  0
   -5.5146    0.7719    0.0000 O   0  0  0  0  0  0  0  0  0  0  0  0
  2  1  1  6
  2  3  1  0
  3  4  1  0
  4  5  1  0
  5  6  1  0
  6  7  2  0
  7  8  1  0
  8  9  2  0
  9 10  1  0
 10 11  2  0
  2 12  1  0
 12 13  2  0
 12 14  1  0
 11  6  1  0
M  END
>  <rName>  (896) 
D-Ser_Bn

>  <PQ_SYMBOL>  (896) 
D-Ser_Bn

>  <FULL_NAME>  (896) 
O-Benzyl-D-serine

>  <IUPAC_CONDENSED>  (896) 
D-Ser(Bn)

>  <IUPAC>  (896) 
(2R)-2-amino-3-benzyloxypropanoic acid

>  <TYPE>  (896) 
Backbone

>  <CLASS>  (896) 
alpha

>  <ANALOG>  (896) 
Ser

>  <MOL_WT>  (896) 
195.218

>  <LOGP>  (896) 
0.6151

>  <TPSA>  (896) 
72.55

>  <POPULARITY>  (896) 
17.1

>  <PROTECTED>  (896) 
TRUE

>  <SMILES>  (896) 
N[C@H](COCc1(ccccc1))C(=O)O

>  <INCHIKEY>  (896) 
IDGQXGPQOGUGIX-SECBINFHSA-N

$$$$
Pro_55diMe
     RDKit          2D

 10 10  0  0  0  0  0  0  0  0999 V2000
   -0.3816   -0.8744    0.0000 N   0  0  0  0  0  0  0  0  0  0  0  0
    0.7221    0.1414    0.0000 C   0  0  0  0  0  0  0  0  0  0  0  0
    0.0971    1.5050    0.0000 C   0  0  0  0  0  0  0  0  0  0  0  0
   -1.3929    1.3319    0.0000 C   0  0  0  0  0  0  0  0  0  0  0  0
   -1.6888   -0.1386    0.0000 C   0  0  0  0  0  0  0  0  0  0  0  0
   -2.2839   -1.5155    0.0000 C   0  0  0  0  0  0  0  0  0  0  0  0
   -3.1203    0.3093    0.0000 C   0  0  0  0  0  0  0  0  0  0  0  0
    2.1926   -0.1544    0.0000 C   0  0  0  0  0  0  0  0  0  0  0  0
    3.1841    0.9712    0.0000 O   0  0  0  0  0  0  0  0  0  0  0  0
    2.6717   -1.5759    0.0000 O   0  0  0  0  0  0  0  0  0  0  0  0
  1  2  1  0
  2  3  1  0
  3  4  1  0
  4  5  1  0
  5  6  1  0
  5  7  1  0
  2  8  1  1
  8  9  2  0
  8 10  1  0
  5  1  1  0
M  END
>  <rName>  (897) 
Pro_55diMe

>  <PQ_SYMBOL>  (897) 
Pro_55diMe

>  <FULL_NAME>  (897) 
5,5-Dimethyl-l-proline

>  <IUPAC_CONDENSED>  (897) 
Pro(5,5-diMe)

>  <IUPAC>  (897) 
(2S)-5,5-dimethylpyrrolidine-2-carboxylic acid

>  <TYPE>  (897) 
Backbone

>  <CLASS>  (897) 
alpha

>  <ANALOG>  (897) 
Pro

>  <MOL_WT>  (897) 
143.186

>  <LOGP>  (897) 
0.6015999999999997

>  <TPSA>  (897) 
49.33

>  <POPULARITY>  (897) 
7.5

>  <PROTECTED>  (897) 
TRUE

>  <SMILES>  (897) 
N1[C@@H](CCC1(C)C)C(=O)O

>  <INCHIKEY>  (897) 
DEMIRSVUSWJCFT-YFKPBYRVSA-N

$$$$
D-Nva_vinyl
     RDKit          2D

 10  9  0  0  0  0  0  0  0  0999 V2000
   -1.4166   -1.8843    0.0000 N   0  0  0  0  0  0  0  0  0  0  0  0
   -1.4265   -0.3844    0.0000 C   0  0  0  0  0  0  0  0  0  0  0  0
   -0.1324    0.3741    0.0000 C   0  0  0  0  0  0  0  0  0  0  0  0
    1.1716   -0.3673    0.0000 C   0  0  0  0  0  0  0  0  0  0  0  0
    2.4657    0.3912    0.0000 C   0  0  0  0  0  0  0  0  0  0  0  0
    3.7696   -0.3503    0.0000 C   0  0  0  0  0  0  0  0  0  0  0  0
    5.0637    0.4082    0.0000 C   0  0  0  0  0  0  0  0  0  0  0  0
   -2.7304    0.3571    0.0000 C   0  0  0  0  0  0  0  0  0  0  0  0
   -2.7402    1.8571    0.0000 O   0  0  0  0  0  0  0  0  0  0  0  0
   -4.0245   -0.4014    0.0000 O   0  0  0  0  0  0  0  0  0  0  0  0
  2  1  1  1
  2  3  1  0
  3  4  1  0
  4  5  1  0
  5  6  1  0
  6  7  2  0
  2  8  1  0
  8  9  2  0
  8 10  1  0
M  END
>  <rName>  (898) 
D-Nva_vinyl

>  <PQ_SYMBOL>  (898) 
D-Nva_vinyl

>  <FULL_NAME>  (898) 
(2R)-2-amino-6-Heptenoic acid

>  <IUPAC_CONDENSED>  (898) 
D-Nva(vinyl)

>  <IUPAC>  (898) 
(2R)-2-aminohept-6-enoic acid

>  <TYPE>  (898) 
Backbone

>  <CLASS>  (898) 
alpha

>  <ANALOG>  (898) 
Leu

>  <MOL_WT>  (898) 
143.186

>  <LOGP>  (898) 
0.7545999999999999

>  <TPSA>  (898) 
63.32000000000001

>  <POPULARITY>  (898) 
11.6

>  <PROTECTED>  (898) 
TRUE

>  <SMILES>  (898) 
N[C@H](CCCC=C)C(=O)O

>  <INCHIKEY>  (898) 
OOOVDVSHGOKTNT-ZCFIWIBFSA-N

$$$$
Nle_vinyl
     RDKit          2D

 11 10  0  0  0  0  0  0  0  0999 V2000
    1.9630   -1.8884    0.0000 N   0  0  0  0  0  0  0  0  0  0  0  0
    1.9989   -0.3888    0.0000 C   0  0  0  0  0  0  0  0  0  0  0  0
    0.7181    0.3920    0.0000 C   0  0  0  0  0  0  0  0  0  0  0  0
   -0.5985   -0.3267    0.0000 C   0  0  0  0  0  0  0  0  0  0  0  0
   -1.8792    0.4541    0.0000 C   0  0  0  0  0  0  0  0  0  0  0  0
   -3.1958   -0.2646    0.0000 C   0  0  0  0  0  0  0  0  0  0  0  0
   -4.4765    0.5162    0.0000 C   0  0  0  0  0  0  0  0  0  0  0  0
   -5.7931   -0.2025    0.0000 C   0  0  0  0  0  0  0  0  0  0  0  0
    3.3155    0.3299    0.0000 C   0  0  0  0  0  0  0  0  0  0  0  0
    3.3513    1.8295    0.0000 O   0  0  0  0  0  0  0  0  0  0  0  0
    4.5962   -0.4509    0.0000 O   0  0  0  0  0  0  0  0  0  0  0  0
  2  1  1  1
  2  3  1  0
  3  4  1  0
  4  5  1  0
  5  6  1  0
  6  7  1  0
  7  8  2  0
  2  9  1  0
  9 10  2  0
  9 11  1  0
M  END
>  <rName>  (899) 
Nle_vinyl

>  <PQ_SYMBOL>  (899) 
Nle_vinyl

>  <FULL_NAME>  (899) 
(S)-2-aminooct-7-enoic acid

>  <IUPAC_CONDENSED>  (899) 
Nle(vinyl)

>  <IUPAC>  (899) 
(2S)-2-aminooct-7-enoic acid

>  <TYPE>  (899) 
Backbone

>  <CLASS>  (899) 
alpha

>  <ANALOG>  (899) 
Leu

>  <MOL_WT>  (899) 
157.213

>  <LOGP>  (899) 
1.1446999999999998

>  <TPSA>  (899) 
63.32000000000001

>  <POPULARITY>  (899) 
15.1

>  <PROTECTED>  (899) 
TRUE

>  <SMILES>  (899) 
N[C@@H](CCCCC=C)C(=O)O

>  <INCHIKEY>  (899) 
VXVRWMRIUKRFMP-ZETCQYMHSA-N

$$$$
D-Nle_allyl
     RDKit          2D

 12 11  0  0  0  0  0  0  0  0999 V2000
    2.5981    1.8750    0.0000 N   0  0  0  0  0  0  0  0  0  0  0  0
    2.5981    0.3750    0.0000 C   0  0  0  0  0  0  0  0  0  0  0  0
    1.2990   -0.3750    0.0000 C   0  0  0  0  0  0  0  0  0  0  0  0
    0.0000    0.3750    0.0000 C   0  0  0  0  0  0  0  0  0  0  0  0
   -1.2990   -0.3750    0.0000 C   0  0  0  0  0  0  0  0  0  0  0  0
   -2.5981    0.3750    0.0000 C   0  0  0  0  0  0  0  0  0  0  0  0
   -3.8971   -0.3750    0.0000 C   0  0  0  0  0  0  0  0  0  0  0  0
   -5.1962    0.3750    0.0000 C   0  0  0  0  0  0  0  0  0  0  0  0
   -6.4952   -0.3750    0.0000 C   0  0  0  0  0  0  0  0  0  0  0  0
    3.8971   -0.3750    0.0000 C   0  0  0  0  0  0  0  0  0  0  0  0
    3.8971   -1.8750    0.0000 O   0  0  0  0  0  0  0  0  0  0  0  0
    5.1962    0.3750    0.0000 O   0  0  0  0  0  0  0  0  0  0  0  0
  2  1  1  1
  2  3  1  0
  3  4  1  0
  4  5  1  0
  5  6  1  0
  6  7  1  0
  7  8  1  0
  8  9  2  0
  2 10  1  0
 10 11  2  0
 10 12  1  0
M  END
>  <rName>  (900) 
D-Nle_allyl

>  <PQ_SYMBOL>  (900) 
D-Nle_allyl

>  <FULL_NAME>  (900) 
(R)-2-aminonon-8-enoic acid

>  <IUPAC_CONDENSED>  (900) 
D-Nle(allyl)

>  <IUPAC>  (900) 
(2R)-2-aminonon-8-enoic acid

>  <TYPE>  (900) 
Backbone

>  <CLASS>  (900) 
alpha

>  <ANALOG>  (900) 
X

>  <MOL_WT>  (900) 
171.24

>  <LOGP>  (900) 
1.5348

>  <TPSA>  (900) 
63.32000000000001

>  <POPULARITY>  (900) 
14.6

>  <PROTECTED>  (900) 
TRUE

>  <SMILES>  (900) 
N[C@H](CCCCCC=C)C(=O)O

>  <INCHIKEY>  (900) 
LKMSSWRWDBZUFC-MRVPVSSYSA-N

$$$$
Nle_but3enyl
     RDKit          2D

 13 12  0  0  0  0  0  0  0  0999 V2000
    3.1740   -1.8865    0.0000 N   0  0  0  0  0  0  0  0  0  0  0  0
    3.1930   -0.3866    0.0000 C   0  0  0  0  0  0  0  0  0  0  0  0
    1.9036    0.3798    0.0000 C   0  0  0  0  0  0  0  0  0  0  0  0
    0.5951   -0.3537    0.0000 C   0  0  0  0  0  0  0  0  0  0  0  0
   -0.6943    0.4127    0.0000 C   0  0  0  0  0  0  0  0  0  0  0  0
   -2.0027   -0.3208    0.0000 C   0  0  0  0  0  0  0  0  0  0  0  0
   -3.2922    0.4456    0.0000 C   0  0  0  0  0  0  0  0  0  0  0  0
   -4.6006   -0.2879    0.0000 C   0  0  0  0  0  0  0  0  0  0  0  0
   -5.8900    0.4785    0.0000 C   0  0  0  0  0  0  0  0  0  0  0  0
   -7.1985   -0.2550    0.0000 C   0  0  0  0  0  0  0  0  0  0  0  0
    4.5014    0.3468    0.0000 C   0  0  0  0  0  0  0  0  0  0  0  0
    4.5204    1.8467    0.0000 O   0  0  0  0  0  0  0  0  0  0  0  0
    5.7909   -0.4196    0.0000 O   0  0  0  0  0  0  0  0  0  0  0  0
  2  1  1  1
  2  3  1  0
  3  4  1  0
  4  5  1  0
  5  6  1  0
  6  7  1  0
  7  8  1  0
  8  9  1  0
  9 10  2  0
  2 11  1  0
 11 12  2  0
 11 13  1  0
M  END
>  <rName>  (901) 
Nle_but3enyl

>  <PQ_SYMBOL>  (901) 
Nle_but3enyl

>  <FULL_NAME>  (901) 
(2S)-2-Amino-9-decenoic acid

>  <IUPAC_CONDENSED>  (901) 
Nle(but-3-enyl)

>  <IUPAC>  (901) 
(2S)-2-aminodec-9-enoic acid

>  <TYPE>  (901) 
Backbone

>  <CLASS>  (901) 
alpha

>  <ANALOG>  (901) 
X

>  <MOL_WT>  (901) 
185.267

>  <LOGP>  (901) 
1.9248999999999998

>  <TPSA>  (901) 
63.32000000000001

>  <POPULARITY>  (901) 
11.5

>  <PROTECTED>  (901) 
TRUE

>  <SMILES>  (901) 
N[C@@H](CCCCCCC=C)C(=O)O

>  <INCHIKEY>  (901) 
XDHWDJVNBSJHRY-VIFPVBQESA-N

$$$$
Nle_Bu
     RDKit          2D

 13 12  0  0  0  0  0  0  0  0999 V2000
    3.1740   -1.8865    0.0000 N   0  0  0  0  0  0  0  0  0  0  0  0
    3.1930   -0.3866    0.0000 C   0  0  0  0  0  0  0  0  0  0  0  0
    1.9036    0.3798    0.0000 C   0  0  0  0  0  0  0  0  0  0  0  0
    0.5951   -0.3537    0.0000 C   0  0  0  0  0  0  0  0  0  0  0  0
   -0.6943    0.4127    0.0000 C   0  0  0  0  0  0  0  0  0  0  0  0
   -2.0027   -0.3208    0.0000 C   0  0  0  0  0  0  0  0  0  0  0  0
   -3.2922    0.4456    0.0000 C   0  0  0  0  0  0  0  0  0  0  0  0
   -4.6006   -0.2879    0.0000 C   0  0  0  0  0  0  0  0  0  0  0  0
   -5.8900    0.4785    0.0000 C   0  0  0  0  0  0  0  0  0  0  0  0
   -7.1985   -0.2550    0.0000 C   0  0  0  0  0  0  0  0  0  0  0  0
    4.5014    0.3468    0.0000 C   0  0  0  0  0  0  0  0  0  0  0  0
    4.5204    1.8467    0.0000 O   0  0  0  0  0  0  0  0  0  0  0  0
    5.7909   -0.4196    0.0000 O   0  0  0  0  0  0  0  0  0  0  0  0
  2  1  1  1
  2  3  1  0
  3  4  1  0
  4  5  1  0
  5  6  1  0
  6  7  1  0
  7  8  1  0
  8  9  1  0
  9 10  1  0
  2 11  1  0
 11 12  2  0
 11 13  1  0
M  END
>  <rName>  (902) 
Nle_Bu

>  <PQ_SYMBOL>  (902) 
Nle_Bu

>  <FULL_NAME>  (902) 
(S)-2-Aminodecanoic acid

>  <IUPAC_CONDENSED>  (902) 
Nle(Bu)

>  <IUPAC>  (902) 
(2S)-2-aminodecanoic acid

>  <TYPE>  (902) 
Backbone

>  <CLASS>  (902) 
alpha

>  <ANALOG>  (902) 
X

>  <MOL_WT>  (902) 
187.28300000000002

>  <LOGP>  (902) 
2.1489

>  <TPSA>  (902) 
63.32000000000001

>  <POPULARITY>  (902) 
19.3

>  <PROTECTED>  (902) 
TRUE

>  <SMILES>  (902) 
N[C@@H](CCCCCCCC)C(=O)O

>  <INCHIKEY>  (902) 
JINGUCXQUOKWKH-VIFPVBQESA-N

$$$$
Phe_bRMe
     RDKit          2D

 13 13  0  0  0  0  0  0  0  0999 V2000
    1.1110    1.8899    0.0000 N   0  0  0  0  0  0  0  0  0  0  0  0
    1.5339    0.4508    0.0000 C   0  0  0  0  0  0  0  0  0  0  0  0
    0.4991   -0.6350    0.0000 C   0  0  0  0  0  0  0  0  0  0  0  0
    0.9220   -2.0742    0.0000 C   0  0  0  0  0  0  0  0  0  0  0  0
   -0.9587   -0.2818    0.0000 C   0  0  0  0  0  0  0  0  0  0  0  0
   -1.9936   -1.3676    0.0000 C   0  0  0  0  0  0  0  0  0  0  0  0
   -3.4514   -1.0143    0.0000 C   0  0  0  0  0  0  0  0  0  0  0  0
   -3.8743    0.4248    0.0000 C   0  0  0  0  0  0  0  0  0  0  0  0
   -2.8395    1.5107    0.0000 C   0  0  0  0  0  0  0  0  0  0  0  0
   -1.3817    1.1574    0.0000 C   0  0  0  0  0  0  0  0  0  0  0  0
    2.9917    0.0975    0.0000 C   0  0  0  0  0  0  0  0  0  0  0  0
    3.4147   -1.3416    0.0000 O   0  0  0  0  0  0  0  0  0  0  0  0
    4.0266    1.1834    0.0000 O   0  0  0  0  0  0  0  0  0  0  0  0
  2  1  1  6
  2  3  1  0
  3  4  1  6
  3  5  1  0
  5  6  2  0
  6  7  1  0
  7  8  2  0
  8  9  1  0
  9 10  2  0
  2 11  1  0
 11 12  2  0
 11 13  1  0
 10  5  1  0
M  END
>  <rName>  (903) 
Phe_bRMe

>  <PQ_SYMBOL>  (903) 
Phe_bRMe

>  <FULL_NAME>  (903) 
(2S,3R)-2-amino-3-phenylbutanoic acid

>  <IUPAC_CONDENSED>  (903) 
Phe(bR-Me)

>  <IUPAC>  (903) 
(2S,3R)-2-amino-3-phenylbutanoic acid

>  <TYPE>  (903) 
Backbone

>  <CLASS>  (903) 
alpha

>  <ANALOG>  (903) 
Phe

>  <MOL_WT>  (903) 
179.21899999999997

>  <LOGP>  (903) 
1.202

>  <TPSA>  (903) 
63.32000000000001

>  <POPULARITY>  (903) 
16.4

>  <PROTECTED>  (903) 
TRUE

>  <SMILES>  (903) 
N[C@@H]([C@H](C)c1(ccccc1))C(=O)O

>  <INCHIKEY>  (903) 
IRZQDMYEJPNDEN-APPZFPTMSA-N

$$$$
D-Thz
     RDKit          2D

  8  8  0  0  0  0  0  0  0  0999 V2000
   -0.8342   -1.2135    0.0000 N   0  0  0  0  0  0  0  0  0  0  0  0
    0.0475   -0.0000    0.0000 C   0  0  0  0  0  0  0  0  0  0  0  0
   -0.8342    1.2135    0.0000 C   0  0  0  0  0  0  0  0  0  0  0  0
   -2.2608    0.7500    0.0000 S   0  0  0  0  0  0  0  0  0  0  0  0
   -2.2608   -0.7500    0.0000 C   0  0  0  0  0  0  0  0  0  0  0  0
    1.5475    0.0000    0.0000 C   0  0  0  0  0  0  0  0  0  0  0  0
    2.2975    1.2990    0.0000 O   0  0  0  0  0  0  0  0  0  0  0  0
    2.2975   -1.2990    0.0000 O   0  0  0  0  0  0  0  0  0  0  0  0
  1  2  1  0
  2  3  1  0
  3  4  1  0
  4  5  1  0
  2  6  1  6
  6  7  2  0
  6  8  1  0
  5  1  1  0
M  END
>  <rName>  (904) 
D-Thz

>  <PQ_SYMBOL>  (904) 
D-Thz

>  <FULL_NAME>  (904) 
(S)-Thiazolidine-4-carboxylic acid

>  <IUPAC_CONDENSED>  (904) 
D-Thz

>  <IUPAC>  (904) 
(4S)-thiazolidine-4-carboxylic acid

>  <TYPE>  (904) 
Backbone

>  <CLASS>  (904) 
alpha

>  <ANALOG>  (904) 
Pro

>  <MOL_WT>  (904) 
133.172

>  <LOGP>  (904) 
-0.2665

>  <TPSA>  (904) 
49.33

>  <POPULARITY>  (904) 
23.2

>  <PROTECTED>  (904) 
TRUE

>  <SMILES>  (904) 
N1[C@H](CSC1)C(=O)O

>  <INCHIKEY>  (904) 
DZLNHFMRPBPULJ-GSVOUGTGSA-N

$$$$
hCit
     RDKit          2D

 13 12  0  0  0  0  0  0  0  0999 V2000
   -2.9072    1.8790    0.0000 N   0  0  0  0  0  0  0  0  0  0  0  0
   -2.9824    0.3808    0.0000 C   0  0  0  0  0  0  0  0  0  0  0  0
   -1.7226   -0.4334    0.0000 C   0  0  0  0  0  0  0  0  0  0  0  0
   -0.3876    0.2505    0.0000 C   0  0  0  0  0  0  0  0  0  0  0  0
    0.8722   -0.5637    0.0000 C   0  0  0  0  0  0  0  0  0  0  0  0
    2.2072    0.1202    0.0000 C   0  0  0  0  0  0  0  0  0  0  0  0
    3.4670   -0.6940    0.0000 N   0  0  0  0  0  0  0  0  0  0  0  0
    4.8020   -0.0101    0.0000 C   0  0  0  0  0  0  0  0  0  0  0  0
    4.8772    1.4880    0.0000 O   0  0  0  0  0  0  0  0  0  0  0  0
    6.0618   -0.8243    0.0000 N   0  0  0  0  0  0  0  0  0  0  0  0
   -4.3175   -0.3030    0.0000 C   0  0  0  0  0  0  0  0  0  0  0  0
   -4.3927   -1.8012    0.0000 O   0  0  0  0  0  0  0  0  0  0  0  0
   -5.5772    0.5112    0.0000 O   0  0  0  0  0  0  0  0  0  0  0  0
  2  1  1  1
  2  3  1  0
  3  4  1  0
  4  5  1  0
  5  6  1  0
  6  7  1  0
  7  8  1  0
  8  9  2  0
  8 10  1  0
  2 11  1  0
 11 12  2  0
 11 13  1  0
M  END
>  <rName>  (905) 
hCit

>  <PQ_SYMBOL>  (905) 
hCit

>  <FULL_NAME>  (905) 
L-Homocitrulline

>  <IUPAC_CONDENSED>  (905) 
hCit

>  <IUPAC>  (905) 
(2S)-2-amino-6-(carbamoylamino)hexanoic acid

>  <TYPE>  (905) 
Backbone

>  <CLASS>  (905) 
alpha

>  <ANALOG>  (905) 
Arg

>  <MOL_WT>  (905) 
189.215

>  <LOGP>  (905) 
-0.7630999999999994

>  <TPSA>  (905) 
118.44000000000001

>  <POPULARITY>  (905) 
16.6

>  <PROTECTED>  (905) 
TRUE

>  <SMILES>  (905) 
N[C@@H](CCCCNC(=O)N)C(=O)O

>  <INCHIKEY>  (905) 
XIGSAGMEBXLVJJ-YFKPBYRVSA-N

$$$$
aMeGly_allyl
     RDKit          2D

  9  8  0  0  0  0  0  0  0  0999 V2000
    0.4883    1.7705    0.0000 N   0  0  0  0  0  0  0  0  0  0  0  0
   -0.4082    0.5679    0.0000 C   0  0  0  0  0  0  0  0  0  0  0  0
   -1.6108    1.4643    0.0000 C   0  0  0  0  0  0  0  0  0  0  0  0
    0.7944   -0.3286    0.0000 C   0  0  0  0  0  0  0  0  0  0  0  0
    2.1721    0.2647    0.0000 C   0  0  0  0  0  0  0  0  0  0  0  0
    3.3748   -0.6318    0.0000 C   0  0  0  0  0  0  0  0  0  0  0  0
   -1.3047   -0.6348    0.0000 C   0  0  0  0  0  0  0  0  0  0  0  0
   -2.7944   -0.4597    0.0000 O   0  0  0  0  0  0  0  0  0  0  0  0
   -0.7114   -2.0125    0.0000 O   0  0  0  0  0  0  0  0  0  0  0  0
  1  2  1  0
  2  3  1  6
  2  4  1  0
  4  5  1  0
  5  6  2  0
  2  7  1  0
  7  8  2  0
  7  9  1  0
M  END
>  <rName>  (906) 
aMeGly_allyl

>  <PQ_SYMBOL>  (906) 
aMeGly_allyl

>  <FULL_NAME>  (906) 
(S)-2-Amino-2-methylpent-4-enoic acid

>  <IUPAC_CONDENSED>  (906) 
aMeGly(allyl)

>  <IUPAC>  (906) 
(2S)-2-amino-2-methylpent-4-enoic acid

>  <TYPE>  (906) 
Backbone

>  <CLASS>  (906) 
alpha

>  <ANALOG>  (906) 
Leu

>  <MOL_WT>  (906) 
129.159

>  <LOGP>  (906) 
0.3645

>  <TPSA>  (906) 
63.32000000000001

>  <POPULARITY>  (906) 
11

>  <PROTECTED>  (906) 
TRUE

>  <SMILES>  (906) 
N[C@@](C)(CC=C)C(=O)O

>  <INCHIKEY>  (906) 
QMBTZYHBJFPEJB-LURJTMIESA-N

$$$$
Asp_OMe
     RDKit          2D

 10  9  0  0  0  0  0  0  0  0999 V2000
    0.8391   -1.7602    0.0000 N   0  0  0  0  0  0  0  0  0  0  0  0
    1.0145   -0.2705    0.0000 C   0  0  0  0  0  0  0  0  0  0  0  0
   -0.1878    0.6263    0.0000 C   0  0  0  0  0  0  0  0  0  0  0  0
   -1.5657    0.0334    0.0000 C   0  0  0  0  0  0  0  0  0  0  0  0
   -1.7412   -1.4563    0.0000 O   0  0  0  0  0  0  0  0  0  0  0  0
   -2.7681    0.9302    0.0000 O   0  0  0  0  0  0  0  0  0  0  0  0
   -4.1459    0.3373    0.0000 C   0  0  0  0  0  0  0  0  0  0  0  0
    2.3924    0.3223    0.0000 C   0  0  0  0  0  0  0  0  0  0  0  0
    2.5679    1.8120    0.0000 O   0  0  0  0  0  0  0  0  0  0  0  0
    3.5948   -0.5745    0.0000 O   0  0  0  0  0  0  0  0  0  0  0  0
  2  1  1  1
  2  3  1  0
  3  4  1  0
  4  5  2  0
  4  6  1  0
  6  7  1  0
  2  8  1  0
  8  9  2  0
  8 10  1  0
M  END
>  <rName>  (907) 
Asp_OMe

>  <PQ_SYMBOL>  (907) 
Asp_OMe

>  <FULL_NAME>  (907) 
4-Methyl hydrogen L-aspartate

>  <IUPAC_CONDENSED>  (907) 
Asp(OMe)

>  <IUPAC>  (907) 
(2S)-2-amino-3-(methoxycarbonyl)propanoic acid

>  <TYPE>  (907) 
Backbone

>  <CLASS>  (907) 
alpha

>  <ANALOG>  (907) 
Asp

>  <MOL_WT>  (907) 
147.13

>  <LOGP>  (907) 
-1.0386000000000002

>  <TPSA>  (907) 
89.62000000000002

>  <POPULARITY>  (907) 
21.6

>  <PROTECTED>  (907) 
TRUE

>  <SMILES>  (907) 
N[C@@H](CC(=O)OC)C(=O)O

>  <INCHIKEY>  (907) 
SBRYFUVVWOMLLP-VKHMYHEASA-N

$$$$
D-Ala_tBu
     RDKit          2D

 10  9  0  0  0  0  0  0  0  0999 V2000
    0.5029   -1.7542    0.0000 N   0  0  0  0  0  0  0  0  0  0  0  0
    0.7450   -0.2738    0.0000 C   0  0  0  0  0  0  0  0  0  0  0  0
   -0.4160    0.6760    0.0000 C   0  0  0  0  0  0  0  0  0  0  0  0
   -1.8190    0.1455    0.0000 C   0  0  0  0  0  0  0  0  0  0  0  0
   -2.3495    1.5485    0.0000 C   0  0  0  0  0  0  0  0  0  0  0  0
   -1.2885   -1.2576    0.0000 C   0  0  0  0  0  0  0  0  0  0  0  0
   -3.2221   -0.3850    0.0000 C   0  0  0  0  0  0  0  0  0  0  0  0
    2.1480    0.2567    0.0000 C   0  0  0  0  0  0  0  0  0  0  0  0
    2.3901    1.7370    0.0000 O   0  0  0  0  0  0  0  0  0  0  0  0
    3.3090   -0.6932    0.0000 O   0  0  0  0  0  0  0  0  0  0  0  0
  2  1  1  6
  2  3  1  0
  3  4  1  0
  4  5  1  0
  4  6  1  0
  4  7  1  0
  2  8  1  0
  8  9  2  0
  8 10  1  0
M  END
>  <rName>  (908) 
D-Ala_tBu

>  <PQ_SYMBOL>  (908) 
D-Ala_tBu

>  <FULL_NAME>  (908) 
(R)-2-Amino-4,4-dimethylpentanoic acid

>  <IUPAC_CONDENSED>  (908) 
D-Ala(tBu)

>  <IUPAC>  (908) 
(2R)-2-amino-4,4-dimethylpentanoic acid

>  <TYPE>  (908) 
Backbone

>  <CLASS>  (908) 
alpha

>  <ANALOG>  (908) 
Leu

>  <MOL_WT>  (908) 
145.202

>  <LOGP>  (908) 
0.8344999999999998

>  <TPSA>  (908) 
63.32000000000001

>  <POPULARITY>  (908) 
17.1

>  <PROTECTED>  (908) 
TRUE

>  <SMILES>  (908) 
N[C@H](CC(C)(C)C)C(=O)O

>  <INCHIKEY>  (908) 
LPBSHGLDBQBSPI-RXMQYKEDSA-N

$$$$
D-Cys_O3H
     RDKit          2D

 10  9  0  0  0  0  0  0  0  0999 V2000
   -0.5029   -1.7542    0.0000 N   0  0  0  0  0  0  0  0  0  0  0  0
   -0.7450   -0.2738    0.0000 C   0  0  0  0  0  0  0  0  0  0  0  0
    0.4160    0.6760    0.0000 C   0  0  0  0  0  0  0  0  0  0  0  0
    1.8190    0.1455    0.0000 S   0  0  0  0  0  0  0  0  0  0  0  0
    2.3495    1.5485    0.0000 O   0  0  0  0  0  0  0  0  0  0  0  0
    1.2885   -1.2576    0.0000 O   0  0  0  0  0  0  0  0  0  0  0  0
    3.2221   -0.3850    0.0000 O   0  0  0  0  0  0  0  0  0  0  0  0
   -2.1480    0.2567    0.0000 C   0  0  0  0  0  0  0  0  0  0  0  0
   -2.3901    1.7370    0.0000 O   0  0  0  0  0  0  0  0  0  0  0  0
   -3.3090   -0.6932    0.0000 O   0  0  0  0  0  0  0  0  0  0  0  0
  2  1  1  1
  2  3  1  0
  3  4  1  0
  4  5  2  0
  4  6  2  0
  4  7  1  0
  2  8  1  0
  8  9  2  0
  8 10  1  0
M  END
>  <rName>  (909) 
D-Cys_O3H

>  <PQ_SYMBOL>  (909) 
D-Cys_O3H

>  <FULL_NAME>  (909) 
D-Cysteic acid

>  <IUPAC_CONDENSED>  (909) 
D-Cys(O3H)

>  <IUPAC>  (909) 
(2S)-2-amino-3-sulfopropanoic acid

>  <TYPE>  (909) 
Backbone

>  <CLASS>  (909) 
alpha

>  <ANALOG>  (909) 
X

>  <MOL_WT>  (909) 
169.158

>  <LOGP>  (909) 
-1.7138999999999998

>  <TPSA>  (909) 
117.69000000000001

>  <POPULARITY>  (909) 
12

>  <PROTECTED>  (909) 
TRUE

>  <SMILES>  (909) 
N[C@H](CS(=O)(=O)O)C(=O)O

>  <INCHIKEY>  (909) 
XVOYSCVBGLVSOL-UWTATZPHSA-N

$$$$
D-Nva_Ph
     RDKit          2D

 14 14  0  0  0  0  0  0  0  0999 V2000
   -2.7125    1.8435    0.0000 N   0  0  0  0  0  0  0  0  0  0  0  0
   -2.9490    0.3623    0.0000 C   0  0  0  0  0  0  0  0  0  0  0  0
   -1.7844   -0.5831    0.0000 C   0  0  0  0  0  0  0  0  0  0  0  0
   -0.3834   -0.0473    0.0000 C   0  0  0  0  0  0  0  0  0  0  0  0
    0.7812   -0.9927    0.0000 C   0  0  0  0  0  0  0  0  0  0  0  0
    2.1822   -0.4569    0.0000 C   0  0  0  0  0  0  0  0  0  0  0  0
    2.4187    1.0244    0.0000 C   0  0  0  0  0  0  0  0  0  0  0  0
    3.8197    1.5602    0.0000 C   0  0  0  0  0  0  0  0  0  0  0  0
    4.9842    0.6148    0.0000 C   0  0  0  0  0  0  0  0  0  0  0  0
    4.7478   -0.8664    0.0000 C   0  0  0  0  0  0  0  0  0  0  0  0
    3.3467   -1.4023    0.0000 C   0  0  0  0  0  0  0  0  0  0  0  0
   -4.3500   -0.1735    0.0000 C   0  0  0  0  0  0  0  0  0  0  0  0
   -4.5865   -1.6548    0.0000 O   0  0  0  0  0  0  0  0  0  0  0  0
   -5.5146    0.7719    0.0000 O   0  0  0  0  0  0  0  0  0  0  0  0
  2  1  1  6
  2  3  1  0
  3  4  1  0
  4  5  1  0
  5  6  1  0
  6  7  2  0
  7  8  1  0
  8  9  2  0
  9 10  1  0
 10 11  2  0
  2 12  1  0
 12 13  2  0
 12 14  1  0
 11  6  1  0
M  END
>  <rName>  (910) 
D-Nva_Ph

>  <PQ_SYMBOL>  (910) 
D-Nva_Ph

>  <FULL_NAME>  (910) 
(R)-2-Amino-5-phenylpentanoic acid

>  <IUPAC_CONDENSED>  (910) 
D-Nva(Ph)

>  <IUPAC>  (910) 
(2R)-2-amino-5-phenylpentanoic acid

>  <TYPE>  (910) 
Backbone

>  <CLASS>  (910) 
alpha

>  <ANALOG>  (910) 
X

>  <MOL_WT>  (910) 
193.24599999999998

>  <LOGP>  (910) 
1.4212

>  <TPSA>  (910) 
63.32000000000001

>  <POPULARITY>  (910) 
12.9

>  <PROTECTED>  (910) 
TRUE

>  <SMILES>  (910) 
N[C@H](CCCc1(ccccc1))C(=O)O

>  <INCHIKEY>  (910) 
XOQZTHUXZWQXOK-SNVBAGLBSA-N

$$$$
aHyp_Bn
     RDKit          2D

 16 17  0  0  0  0  0  0  0  0999 V2000
   -3.4311    1.5647    0.0000 N   0  0  0  0  0  0  0  0  0  0  0  0
   -3.3806    0.0656    0.0000 C   0  0  0  0  0  0  0  0  0  0  0  0
   -1.9392   -0.3496    0.0000 C   0  0  0  0  0  0  0  0  0  0  0  0
   -1.0989    0.8929    0.0000 C   0  0  0  0  0  0  0  0  0  0  0  0
    0.4003    0.9434    0.0000 O   0  0  0  0  0  0  0  0  0  0  0  0
    1.1936   -0.3297    0.0000 C   0  0  0  0  0  0  0  0  0  0  0  0
    2.6927   -0.2792    0.0000 C   0  0  0  0  0  0  0  0  0  0  0  0
    3.4860   -1.5522    0.0000 C   0  0  0  0  0  0  0  0  0  0  0  0
    4.9852   -1.5017    0.0000 C   0  0  0  0  0  0  0  0  0  0  0  0
    5.6910   -0.1782    0.0000 C   0  0  0  0  0  0  0  0  0  0  0  0
    4.8977    1.0949    0.0000 C   0  0  0  0  0  0  0  0  0  0  0  0
    3.3986    1.0444    0.0000 C   0  0  0  0  0  0  0  0  0  0  0  0
   -2.0209    2.0760    0.0000 C   0  0  0  0  0  0  0  0  0  0  0  0
   -4.5637   -0.8564    0.0000 C   0  0  0  0  0  0  0  0  0  0  0  0
   -4.3568   -2.3421    0.0000 O   0  0  0  0  0  0  0  0  0  0  0  0
   -5.9538   -0.2928    0.0000 O   0  0  0  0  0  0  0  0  0  0  0  0
  1  2  1  0
  2  3  1  0
  3  4  1  0
  4  5  1  1
  5  6  1  0
  6  7  1  0
  7  8  2  0
  8  9  1  0
  9 10  2  0
 10 11  1  0
 11 12  2  0
  4 13  1  0
  2 14  1  1
 14 15  2  0
 14 16  1  0
 12  7  1  0
 13  1  1  0
M  END
>  <rName>  (911) 
aHyp_Bn

>  <PQ_SYMBOL>  (911) 
aHyp_Bn

>  <FULL_NAME>  (911) 
(4S)-4-(Benzyloxy)-L-proline

>  <IUPAC_CONDENSED>  (911) 
aHyp(Bn)

>  <IUPAC>  (911) 
(2S,4S)-4-benzyloxypyrrolidine-2-carboxylic acid

>  <TYPE>  (911) 
Backbone

>  <CLASS>  (911) 
alpha

>  <ANALOG>  (911) 
Pro

>  <MOL_WT>  (911) 
221.256

>  <LOGP>  (911) 
1.0182999999999998

>  <TPSA>  (911) 
58.56

>  <POPULARITY>  (911) 
9.3

>  <PROTECTED>  (911) 
TRUE

>  <SMILES>  (911) 
N2[C@@H](C[C@H](OCc1(ccccc1))C2)C(=O)O

>  <INCHIKEY>  (911) 
RJFJRYVMVNICCP-QWRGUYRKSA-N

$$$$
D-Gly_cPent
     RDKit          2D

 10 10  0  0  0  0  0  0  0  0999 V2000
   -1.2726   -2.0834    0.0000 N   0  0  0  0  0  0  0  0  0  0  0  0
   -0.8797   -0.6358    0.0000 C   0  0  0  0  0  0  0  0  0  0  0  0
    0.5705   -0.2522    0.0000 C   0  0  0  0  0  0  0  0  0  0  0  0
    1.7331   -1.2000    0.0000 C   0  0  0  0  0  0  0  0  0  0  0  0
    2.9938   -0.3872    0.0000 C   0  0  0  0  0  0  0  0  0  0  0  0
    2.6103    1.0630    0.0000 C   0  0  0  0  0  0  0  0  0  0  0  0
    1.1126    1.1464    0.0000 C   0  0  0  0  0  0  0  0  0  0  0  0
   -1.9369    0.4284    0.0000 C   0  0  0  0  0  0  0  0  0  0  0  0
   -1.5439    1.8760    0.0000 O   0  0  0  0  0  0  0  0  0  0  0  0
   -3.3870    0.0449    0.0000 O   0  0  0  0  0  0  0  0  0  0  0  0
  2  1  1  1
  2  3  1  0
  3  4  1  0
  4  5  1  0
  5  6  1  0
  6  7  1  0
  2  8  1  0
  8  9  2  0
  8 10  1  0
  7  3  1  0
M  END
>  <rName>  (912) 
D-Gly_cPent

>  <PQ_SYMBOL>  (912) 
D-Gly_cPent

>  <FULL_NAME>  (912) 
(R)-2-Amino-2-cyclopentylacetic acid

>  <IUPAC_CONDENSED>  (912) 
D-Gly(cPent)

>  <IUPAC>  (912) 
(2R)-2-amino-2-cyclopentylacetic acid

>  <TYPE>  (912) 
Backbone

>  <CLASS>  (912) 
alpha

>  <ANALOG>  (912) 
X

>  <MOL_WT>  (912) 
143.186

>  <LOGP>  (912) 
0.5884999999999998

>  <TPSA>  (912) 
63.32000000000001

>  <POPULARITY>  (912) 
17.7

>  <PROTECTED>  (912) 
TRUE

>  <SMILES>  (912) 
N[C@H](C1(CCCC1))C(=O)O

>  <INCHIKEY>  (912) 
XBPKRVHTESHFAA-ZCFIWIBFSA-N

$$$$
Ala_CHF2
     RDKit          2D

  9  8  0  0  0  0  0  0  0  0999 V2000
   -0.2826   -1.7410    0.0000 N   0  0  0  0  0  0  0  0  0  0  0  0
   -0.5402   -0.2633    0.0000 C   0  0  0  0  0  0  0  0  0  0  0  0
    0.6108    0.6986    0.0000 C   0  0  0  0  0  0  0  0  0  0  0  0
    2.0193    0.1828    0.0000 C   0  0  0  0  0  0  0  0  0  0  0  0
    3.1703    1.1447    0.0000 F   0  0  0  0  0  0  0  0  0  0  0  0
    2.2769   -1.2950    0.0000 F   0  0  0  0  0  0  0  0  0  0  0  0
   -1.9487    0.2525    0.0000 C   0  0  0  0  0  0  0  0  0  0  0  0
   -2.2062    1.7302    0.0000 O   0  0  0  0  0  0  0  0  0  0  0  0
   -3.0997   -0.7094    0.0000 O   0  0  0  0  0  0  0  0  0  0  0  0
  2  1  1  6
  2  3  1  0
  3  4  1  0
  4  5  1  0
  4  6  1  0
  2  7  1  0
  7  8  2  0
  7  9  1  0
M  END
>  <rName>  (913) 
Ala_CHF2

>  <PQ_SYMBOL>  (913) 
Ala_CHF2

>  <FULL_NAME>  (913) 
(2S)-2-amino-4,4-difluorobutanoic acid

>  <IUPAC_CONDENSED>  (913) 
Ala(CHF2)

>  <IUPAC>  (913) 
(2S)-2-amino-4,4-difluorobutanoic acid

>  <TYPE>  (913) 
Backbone

>  <CLASS>  (913) 
alpha

>  <ANALOG>  (913) 
X

>  <MOL_WT>  (913) 
139.101

>  <LOGP>  (913) 
0.0534999999999996

>  <TPSA>  (913) 
63.32000000000001

>  <POPULARITY>  (913) 
18.4

>  <PROTECTED>  (913) 
TRUE

>  <SMILES>  (913) 
N[C@@H](CC(F)F)C(=O)O

>  <INCHIKEY>  (913) 
VIUCNIMDPZQXAD-REOHCLBHSA-N

$$$$
Nallyl-A
     RDKit          2D

  9  8  0  0  0  0  0  0  0  0999 V2000
    0.2932   -1.1292    0.0000 N   0  0  0  0  0  0  0  0  0  0  0  0
    1.3621   -0.0769    0.0000 C   0  0  0  0  0  0  0  0  0  0  0  0
    2.8079   -0.4764    0.0000 C   0  0  0  0  0  0  0  0  0  0  0  0
    3.8768    0.5760    0.0000 C   0  0  0  0  0  0  0  0  0  0  0  0
   -1.1527   -0.7297    0.0000 C   0  0  0  0  0  0  0  0  0  0  0  0
   -2.2216   -1.7821    0.0000 C   0  0  0  0  0  0  0  0  0  0  0  0
   -1.5296    0.7222    0.0000 C   0  0  0  0  0  0  0  0  0  0  0  0
   -0.4607    1.7745    0.0000 O   0  0  0  0  0  0  0  0  0  0  0  0
   -2.9754    1.1217    0.0000 O   0  0  0  0  0  0  0  0  0  0  0  0
  1  2  1  0
  2  3  1  0
  3  4  2  0
  1  5  1  0
  5  6  1  1
  5  7  1  0
  7  8  2  0
  7  9  1  0
M  END
>  <rName>  (914) 
Nallyl-A

>  <PQ_SYMBOL>  (914) 
Nallyl-A

>  <FULL_NAME>  (914) 
N-(2-propenyl)alanine

>  <IUPAC_CONDENSED>  (914) 
allyl-Ala

>  <IUPAC>  (914) 
(2S)-2-((prop-2-en-1-yl)amino)propanoic acid

>  <TYPE>  (914) 
Backbone

>  <CLASS>  (914) 
alpha

>  <ANALOG>  (914) 
Ala

>  <MOL_WT>  (914) 
129.159

>  <LOGP>  (914) 
0.2350999999999998

>  <TPSA>  (914) 
49.33

>  <POPULARITY>  (914) 
16.5

>  <PROTECTED>  (914) 
TRUE

>  <SMILES>  (914) 
N(CC=C)[C@@H](C)C(=O)O

>  <INCHIKEY>  (914) 
ASVUOKGTAIPUBY-YFKPBYRVSA-N

$$$$
Nva_CF3
     RDKit          2D

 12 11  0  0  0  0  0  0  0  0999 V2000
   -1.9172    1.8446    0.0000 N   0  0  0  0  0  0  0  0  0  0  0  0
   -2.0356    0.3492    0.0000 C   0  0  0  0  0  0  0  0  0  0  0  0
   -0.7998   -0.5009    0.0000 C   0  0  0  0  0  0  0  0  0  0  0  0
    0.5544    0.1442    0.0000 C   0  0  0  0  0  0  0  0  0  0  0  0
    1.7902   -0.7060    0.0000 C   0  0  0  0  0  0  0  0  0  0  0  0
    3.1443   -0.0608    0.0000 C   0  0  0  0  0  0  0  0  0  0  0  0
    4.4985    0.5843    0.0000 F   0  0  0  0  0  0  0  0  0  0  0  0
    3.7895   -1.4150    0.0000 F   0  0  0  0  0  0  0  0  0  0  0  0
    2.4992    1.2933    0.0000 F   0  0  0  0  0  0  0  0  0  0  0  0
   -3.3898   -0.2959    0.0000 C   0  0  0  0  0  0  0  0  0  0  0  0
   -3.5082   -1.7912    0.0000 O   0  0  0  0  0  0  0  0  0  0  0  0
   -4.6256    0.5543    0.0000 O   0  0  0  0  0  0  0  0  0  0  0  0
  2  1  1  1
  2  3  1  0
  3  4  1  0
  4  5  1  0
  5  6  1  0
  6  7  1  0
  6  8  1  0
  6  9  1  0
  2 10  1  0
 10 11  2  0
 10 12  1  0
M  END
>  <rName>  (915) 
Nva_CF3

>  <PQ_SYMBOL>  (915) 
Nva_CF3

>  <FULL_NAME>  (915) 
(S)-2-Amino-6,6,6-trifluorohexanoic acid

>  <IUPAC_CONDENSED>  (915) 
Nva(CF3)

>  <IUPAC>  (915) 
(2S)-2-amino-6,6,6-trifluorohexanoic acid

>  <TYPE>  (915) 
Backbone

>  <CLASS>  (915) 
alpha

>  <ANALOG>  (915) 
X

>  <MOL_WT>  (915) 
185.145

>  <LOGP>  (915) 
1.1309

>  <TPSA>  (915) 
63.32000000000001

>  <POPULARITY>  (915) 
8.4

>  <PROTECTED>  (915) 
TRUE

>  <SMILES>  (915) 
N[C@@H](CCCC(F)(F)F)C(=O)O

>  <INCHIKEY>  (915) 
RUEWGWBXZIDRJY-BYPYZUCNSA-N

$$$$
Cys_SO3H
     RDKit          2D

 11 10  0  0  0  0  0  0  0  0999 V2000
    1.5275    1.9644    0.0000 N   0  0  0  0  0  0  0  0  0  0  0  0
    1.4450    0.4666    0.0000 C   0  0  0  0  0  0  0  0  0  0  0  0
    0.1067   -0.2107    0.0000 C   0  0  0  0  0  0  0  0  0  0  0  0
   -1.1491    0.6096    0.0000 S   0  0  0  0  0  0  0  0  0  0  0  0
   -2.4875   -0.0678    0.0000 S   0  0  0  0  0  0  0  0  0  0  0  0
   -1.8101   -1.4061    0.0000 O   0  0  0  0  0  0  0  0  0  0  0  0
   -3.8258   -0.7452    0.0000 O   0  0  0  0  0  0  0  0  0  0  0  0
   -3.1649    1.2706    0.0000 O   0  0  0  0  0  0  0  0  0  0  0  0
    2.7008   -0.3537    0.0000 C   0  0  0  0  0  0  0  0  0  0  0  0
    2.6183   -1.8514    0.0000 O   0  0  0  0  0  0  0  0  0  0  0  0
    4.0391    0.3237    0.0000 O   0  0  0  0  0  0  0  0  0  0  0  0
  2  1  1  6
  2  3  1  0
  3  4  1  0
  4  5  1  0
  5  6  2  0
  5  7  2  0
  5  8  1  0
  2  9  1  0
  9 10  2  0
  9 11  1  0
M  END
>  <rName>  (916) 
Cys_SO3H

>  <PQ_SYMBOL>  (916) 
Cys_SO3H

>  <FULL_NAME>  (916) 
S-Sulfocysteine

>  <IUPAC_CONDENSED>  (916) 
Cys(SO3H)

>  <IUPAC>  (916) 
(2R)-2-amino-3-(sulfosulfanyl)propanoic acid

>  <TYPE>  (916) 
Backbone

>  <CLASS>  (916) 
alpha

>  <ANALOG>  (916) 
Cys

>  <MOL_WT>  (916) 
201.225

>  <LOGP>  (916) 
-1.0656999999999999

>  <TPSA>  (916) 
117.69000000000001

>  <POPULARITY>  (916) 
20.2

>  <PROTECTED>  (916) 
FALSE

>  <SMILES>  (916) 
N[C@@H](CSS(=O)(=O)O)C(=O)O

>  <INCHIKEY>  (916) 
NOKPBJYHPHHWAN-REOHCLBHSA-N

$$$$
NMe-Cha
     RDKit          2D

 13 13  0  0  0  0  0  0  0  0999 V2000
   -1.1846    1.3730    0.0000 N   0  0  0  0  0  0  0  0  0  0  0  0
   -2.3388    2.3311    0.0000 C   0  0  0  0  0  0  0  0  0  0  0  0
   -1.4373   -0.1056    0.0000 C   0  0  0  0  0  0  0  0  0  0  0  0
   -0.2831   -1.0637    0.0000 C   0  0  0  0  0  0  0  0  0  0  0  0
    1.1237   -0.5432    0.0000 C   0  0  0  0  0  0  0  0  0  0  0  0
    1.3763    0.9354    0.0000 C   0  0  0  0  0  0  0  0  0  0  0  0
    2.7831    1.4559    0.0000 C   0  0  0  0  0  0  0  0  0  0  0  0
    3.9373    0.4978    0.0000 C   0  0  0  0  0  0  0  0  0  0  0  0
    3.6846   -0.9808    0.0000 C   0  0  0  0  0  0  0  0  0  0  0  0
    2.2778   -1.5013    0.0000 C   0  0  0  0  0  0  0  0  0  0  0  0
   -2.8441   -0.6260    0.0000 C   0  0  0  0  0  0  0  0  0  0  0  0
   -3.0967   -2.1046    0.0000 O   0  0  0  0  0  0  0  0  0  0  0  0
   -3.9982    0.3321    0.0000 O   0  0  0  0  0  0  0  0  0  0  0  0
  1  2  1  0
  1  3  1  0
  3  4  1  1
  4  5  1  0
  5  6  1  0
  6  7  1  0
  7  8  1  0
  8  9  1  0
  9 10  1  0
  3 11  1  0
 11 12  2  0
 11 13  1  0
 10  5  1  0
M  END
>  <rName>  (917) 
NMe-Cha

>  <PQ_SYMBOL>  (917) 
NMe-Cha

>  <FULL_NAME>  (917) 
(S)-3-Cyclohexyl-2-(methylamino)propanoic acid

>  <IUPAC_CONDENSED>  (917) 
Me-Cha

>  <IUPAC>  (917) 
(2S)-3-cyclohexyl-2-(methylamino)propanoic acid

>  <TYPE>  (917) 
Backbone

>  <CLASS>  (917) 
alpha

>  <ANALOG>  (917) 
Ala

>  <MOL_WT>  (917) 
185.267

>  <LOGP>  (917) 
1.6294

>  <TPSA>  (917) 
49.33

>  <POPULARITY>  (917) 
24.5

>  <PROTECTED>  (917) 
TRUE

>  <SMILES>  (917) 
N(C)[C@@H](CC1(CCCCC1))C(=O)O

>  <INCHIKEY>  (917) 
GBMDYACPQYNUGA-VIFPVBQESA-N

$$$$
Phe_3Ph
     RDKit          2D

 18 19  0  0  0  0  0  0  0  0999 V2000
   -3.8804    1.4159    0.0000 N   0  0  0  0  0  0  0  0  0  0  0  0
   -3.6989   -0.0731    0.0000 C   0  0  0  0  0  0  0  0  0  0  0  0
   -2.3187   -0.6604    0.0000 C   0  0  0  0  0  0  0  0  0  0  0  0
   -1.1199    0.2413    0.0000 C   0  0  0  0  0  0  0  0  0  0  0  0
   -1.3014    1.7303    0.0000 C   0  0  0  0  0  0  0  0  0  0  0  0
   -0.1027    2.6319    0.0000 C   0  0  0  0  0  0  0  0  0  0  0  0
    1.2776    2.0446    0.0000 C   0  0  0  0  0  0  0  0  0  0  0  0
    1.4590    0.5556    0.0000 C   0  0  0  0  0  0  0  0  0  0  0  0
    0.2603   -0.3461    0.0000 C   0  0  0  0  0  0  0  0  0  0  0  0
    2.8393   -0.0317    0.0000 C   0  0  0  0  0  0  0  0  0  0  0  0
    3.0208   -1.5207    0.0000 C   0  0  0  0  0  0  0  0  0  0  0  0
    4.4010   -2.1080    0.0000 C   0  0  0  0  0  0  0  0  0  0  0  0
    5.5997   -1.2064    0.0000 C   0  0  0  0  0  0  0  0  0  0  0  0
    5.4183    0.2826    0.0000 C   0  0  0  0  0  0  0  0  0  0  0  0
    4.0380    0.8699    0.0000 C   0  0  0  0  0  0  0  0  0  0  0  0
   -4.8977   -0.9747    0.0000 C   0  0  0  0  0  0  0  0  0  0  0  0
   -4.7162   -2.4637    0.0000 O   0  0  0  0  0  0  0  0  0  0  0  0
   -6.2779   -0.3874    0.0000 O   0  0  0  0  0  0  0  0  0  0  0  0
  2  1  1  1
  2  3  1  0
  3  4  1  0
  4  5  1  0
  5  6  2  0
  6  7  1  0
  7  8  2  0
  8  9  1  0
  8 10  1  0
 10 11  2  0
 11 12  1  0
 12 13  2  0
 13 14  1  0
 14 15  2  0
  2 16  1  0
 16 17  2  0
 16 18  1  0
  9  4  2  0
 15 10  1  0
M  END
>  <rName>  (918) 
Phe_3Ph

>  <PQ_SYMBOL>  (918) 
Phe_3Ph

>  <FULL_NAME>  (918) 
(S)-2-Amino-3-biphenyl-3-yl-propionic acid

>  <IUPAC_CONDENSED>  (918) 
Phe(3-Ph)

>  <IUPAC>  (918) 
(2S)-2-amino-3-(3-phenylphenyl)propanoic acid

>  <TYPE>  (918) 
Backbone

>  <CLASS>  (918) 
alpha

>  <ANALOG>  (918) 
Phe

>  <MOL_WT>  (918) 
241.29

>  <LOGP>  (918) 
2.308

>  <TPSA>  (918) 
63.32000000000001

>  <POPULARITY>  (918) 
12.7

>  <PROTECTED>  (918) 
TRUE

>  <SMILES>  (918) 
N[C@@H](Cc1(cccc(c1)c2(ccccc2)))C(=O)O

>  <INCHIKEY>  (918) 
XXPHIHDDXCFWMS-AWEZNQCLSA-N

$$$$
Phe_26diMe
     RDKit          2D

 14 14  0  0  0  0  0  0  0  0999 V2000
   -1.4856    1.6416    0.0000 N   0  0  0  0  0  0  0  0  0  0  0  0
   -1.7624    0.1673    0.0000 C   0  0  0  0  0  0  0  0  0  0  0  0
   -0.6240   -0.8095    0.0000 C   0  0  0  0  0  0  0  0  0  0  0  0
    0.7911   -0.3120    0.0000 C   0  0  0  0  0  0  0  0  0  0  0  0
    1.0678    1.1622    0.0000 C   0  0  0  0  0  0  0  0  0  0  0  0
   -0.0705    2.1390    0.0000 C   0  0  0  0  0  0  0  0  0  0  0  0
    2.4830    1.6597    0.0000 C   0  0  0  0  0  0  0  0  0  0  0  0
    3.6213    0.6829    0.0000 C   0  0  0  0  0  0  0  0  0  0  0  0
    3.3446   -0.7913    0.0000 C   0  0  0  0  0  0  0  0  0  0  0  0
    1.9295   -1.2888    0.0000 C   0  0  0  0  0  0  0  0  0  0  0  0
    1.6527   -2.7631    0.0000 C   0  0  0  0  0  0  0  0  0  0  0  0
   -3.1775   -0.3302    0.0000 C   0  0  0  0  0  0  0  0  0  0  0  0
   -3.4542   -1.8044    0.0000 O   0  0  0  0  0  0  0  0  0  0  0  0
   -4.3158    0.6466    0.0000 O   0  0  0  0  0  0  0  0  0  0  0  0
  2  1  1  1
  2  3  1  0
  3  4  1  0
  4  5  2  0
  5  6  1  0
  5  7  1  0
  7  8  2  0
  8  9  1  0
  9 10  2  0
 10 11  1  0
  2 12  1  0
 12 13  2  0
 12 14  1  0
 10  4  1  0
M  END
>  <rName>  (919) 
Phe_26diMe

>  <PQ_SYMBOL>  (919) 
Phe_26diMe

>  <FULL_NAME>  (919) 
(2S)-2-amino-3-(2,6-dimethylphenyl)propanoic acid

>  <IUPAC_CONDENSED>  (919) 
Phe(2,6-diMe)

>  <IUPAC>  (919) 
(2S)-2-amino-3-(2,6-dimethylphenyl)propanoic acid

>  <TYPE>  (919) 
Backbone

>  <CLASS>  (919) 
alpha

>  <ANALOG>  (919) 
Phe

>  <MOL_WT>  (919) 
193.24599999999995

>  <LOGP>  (919) 
1.2578400000000003

>  <TPSA>  (919) 
63.32000000000001

>  <POPULARITY>  (919) 
17

>  <PROTECTED>  (919) 
TRUE

>  <SMILES>  (919) 
N[C@@H](Cc1(c(C)cccc1C))C(=O)O

>  <INCHIKEY>  (919) 
VEQOZHOWFAVBOO-JTQLQIEISA-N

$$$$
NMe-D-Phg
     RDKit          2D

 12 12  0  0  0  0  0  0  0  0999 V2000
   -1.6493   -1.6245    0.0000 N   0  0  0  0  0  0  0  0  0  0  0  0
   -3.1463   -1.7206    0.0000 C   0  0  0  0  0  0  0  0  0  0  0  0
   -0.9841   -0.2801    0.0000 C   0  0  0  0  0  0  0  0  0  0  0  0
    0.5128   -0.1840    0.0000 C   0  0  0  0  0  0  0  0  0  0  0  0
    1.1781    1.1604    0.0000 C   0  0  0  0  0  0  0  0  0  0  0  0
    2.6750    1.2564    0.0000 C   0  0  0  0  0  0  0  0  0  0  0  0
    3.5067    0.0081    0.0000 C   0  0  0  0  0  0  0  0  0  0  0  0
    2.8414   -1.3363    0.0000 C   0  0  0  0  0  0  0  0  0  0  0  0
    1.3445   -1.4324    0.0000 C   0  0  0  0  0  0  0  0  0  0  0  0
   -1.8157    0.9682    0.0000 C   0  0  0  0  0  0  0  0  0  0  0  0
   -1.1505    2.3126    0.0000 O   0  0  0  0  0  0  0  0  0  0  0  0
   -3.3127    0.8721    0.0000 O   0  0  0  0  0  0  0  0  0  0  0  0
  1  2  1  0
  3  1  1  1
  3  4  1  0
  4  5  2  0
  5  6  1  0
  6  7  2  0
  7  8  1  0
  8  9  2  0
  3 10  1  0
 10 11  2  0
 10 12  1  0
  9  4  1  0
M  END
>  <rName>  (920) 
NMe-D-Phg

>  <PQ_SYMBOL>  (920) 
NMe-D-Phg

>  <FULL_NAME>  (920) 
(R)-2-(Methylamino)-2-phenylacetic acid

>  <IUPAC_CONDENSED>  (920) 
Me-D-Phg

>  <IUPAC>  (920) 
(2R)-2-(methylamino)-2-phenylacetic acid

>  <TYPE>  (920) 
Backbone

>  <CLASS>  (920) 
alpha

>  <ANALOG>  (920) 
X

>  <MOL_WT>  (920) 
165.19199999999995

>  <LOGP>  (920) 
1.0317

>  <TPSA>  (920) 
49.33

>  <POPULARITY>  (920) 
18.5

>  <PROTECTED>  (920) 
TRUE

>  <SMILES>  (920) 
N(C)[C@H](c1(ccccc1))C(=O)O

>  <INCHIKEY>  (920) 
HGIPIEYZJPULIQ-MRVPVSSYSA-N

$$$$
NcPent-G
     RDKit          2D

 10 10  0  0  0  0  0  0  0  0999 V2000
   -0.3449   -0.6238    0.0000 N   0  0  0  0  0  0  0  0  0  0  0  0
    1.1088   -0.2543    0.0000 C   0  0  0  0  0  0  0  0  0  0  0  0
    2.2623   -1.2132    0.0000 C   0  0  0  0  0  0  0  0  0  0  0  0
    3.5307   -0.4124    0.0000 C   0  0  0  0  0  0  0  0  0  0  0  0
    3.1612    1.0413    0.0000 C   0  0  0  0  0  0  0  0  0  0  0  0
    1.6644    1.1391    0.0000 C   0  0  0  0  0  0  0  0  0  0  0  0
   -1.3919    0.4504    0.0000 C   0  0  0  0  0  0  0  0  0  0  0  0
   -2.8456    0.0808    0.0000 C   0  0  0  0  0  0  0  0  0  0  0  0
   -3.2525   -1.3629    0.0000 O   0  0  0  0  0  0  0  0  0  0  0  0
   -3.8925    1.1550    0.0000 O   0  0  0  0  0  0  0  0  0  0  0  0
  1  2  1  0
  2  3  1  0
  3  4  1  0
  4  5  1  0
  5  6  1  0
  1  7  1  0
  7  8  1  0
  8  9  2  0
  8 10  1  0
  6  2  1  0
M  END
>  <rName>  (921) 
NcPent-G

>  <PQ_SYMBOL>  (921) 
NcPent-G

>  <FULL_NAME>  (921) 
2-(Cyclopentylamino)acetic acid

>  <IUPAC_CONDENSED>  (921) 
N-cPent-Gly

>  <IUPAC>  (921) 
2-(cyclopentylamino)acetic acid

>  <TYPE>  (921) 
Backbone

>  <CLASS>  (921) 
alpha

>  <ANALOG>  (921) 
Gly

>  <MOL_WT>  (921) 
143.186

>  <LOGP>  (921) 
0.6032

>  <TPSA>  (921) 
49.33

>  <POPULARITY>  (921) 
15.8

>  <PROTECTED>  (921) 
TRUE

>  <SMILES>  (921) 
N(C1(CCCC1))CC(=O)O

>  <INCHIKEY>  (921) 
LRHRHAWNXCGABU-UHFFFAOYSA-N

$$$$
D-Phe_bRMe
     RDKit          2D

 13 13  0  0  0  0  0  0  0  0999 V2000
    1.1110    1.8899    0.0000 N   0  0  0  0  0  0  0  0  0  0  0  0
    1.5339    0.4508    0.0000 C   0  0  0  0  0  0  0  0  0  0  0  0
    0.4991   -0.6350    0.0000 C   0  0  0  0  0  0  0  0  0  0  0  0
    0.9220   -2.0742    0.0000 C   0  0  0  0  0  0  0  0  0  0  0  0
   -0.9587   -0.2818    0.0000 C   0  0  0  0  0  0  0  0  0  0  0  0
   -1.9936   -1.3676    0.0000 C   0  0  0  0  0  0  0  0  0  0  0  0
   -3.4514   -1.0143    0.0000 C   0  0  0  0  0  0  0  0  0  0  0  0
   -3.8743    0.4248    0.0000 C   0  0  0  0  0  0  0  0  0  0  0  0
   -2.8395    1.5107    0.0000 C   0  0  0  0  0  0  0  0  0  0  0  0
   -1.3817    1.1574    0.0000 C   0  0  0  0  0  0  0  0  0  0  0  0
    2.9917    0.0975    0.0000 C   0  0  0  0  0  0  0  0  0  0  0  0
    3.4147   -1.3416    0.0000 O   0  0  0  0  0  0  0  0  0  0  0  0
    4.0266    1.1834    0.0000 O   0  0  0  0  0  0  0  0  0  0  0  0
  2  1  1  1
  2  3  1  0
  3  4  1  6
  3  5  1  0
  5  6  2  0
  6  7  1  0
  7  8  2  0
  8  9  1  0
  9 10  2  0
  2 11  1  0
 11 12  2  0
 11 13  1  0
 10  5  1  0
M  END
>  <rName>  (922) 
D-Phe_bRMe

>  <PQ_SYMBOL>  (922) 
D-Phe_bRMe

>  <FULL_NAME>  (922) 
(betaR)-beta-Methyl-D-phenylalanine

>  <IUPAC_CONDENSED>  (922) 
D-Phe(bR-Me)

>  <IUPAC>  (922) 
(2R,3R)-2-amino-3-phenylbutanoic acid

>  <TYPE>  (922) 
Backbone

>  <CLASS>  (922) 
alpha

>  <ANALOG>  (922) 
Phe

>  <MOL_WT>  (922) 
179.21899999999997

>  <LOGP>  (922) 
1.202

>  <TPSA>  (922) 
63.32000000000001

>  <POPULARITY>  (922) 
15.2

>  <PROTECTED>  (922) 
TRUE

>  <SMILES>  (922) 
N[C@H]([C@H](C)c1(ccccc1))C(=O)O

>  <INCHIKEY>  (922) 
IRZQDMYEJPNDEN-VXNVDRBHSA-N

$$$$
NMe-Phg
     RDKit          2D

 12 12  0  0  0  0  0  0  0  0999 V2000
   -1.6493   -1.6245    0.0000 N   0  0  0  0  0  0  0  0  0  0  0  0
   -3.1463   -1.7206    0.0000 C   0  0  0  0  0  0  0  0  0  0  0  0
   -0.9841   -0.2801    0.0000 C   0  0  0  0  0  0  0  0  0  0  0  0
    0.5128   -0.1840    0.0000 C   0  0  0  0  0  0  0  0  0  0  0  0
    1.1781    1.1604    0.0000 C   0  0  0  0  0  0  0  0  0  0  0  0
    2.6750    1.2564    0.0000 C   0  0  0  0  0  0  0  0  0  0  0  0
    3.5067    0.0081    0.0000 C   0  0  0  0  0  0  0  0  0  0  0  0
    2.8414   -1.3363    0.0000 C   0  0  0  0  0  0  0  0  0  0  0  0
    1.3445   -1.4324    0.0000 C   0  0  0  0  0  0  0  0  0  0  0  0
   -1.8157    0.9682    0.0000 C   0  0  0  0  0  0  0  0  0  0  0  0
   -1.1505    2.3126    0.0000 O   0  0  0  0  0  0  0  0  0  0  0  0
   -3.3127    0.8721    0.0000 O   0  0  0  0  0  0  0  0  0  0  0  0
  1  2  1  0
  3  1  1  6
  3  4  1  0
  4  5  2  0
  5  6  1  0
  6  7  2  0
  7  8  1  0
  8  9  2  0
  3 10  1  0
 10 11  2  0
 10 12  1  0
  9  4  1  0
M  END
>  <rName>  (923) 
NMe-Phg

>  <PQ_SYMBOL>  (923) 
NMe-Phg

>  <FULL_NAME>  (923) 
(S)-2-(Methylamino)-2-phenylacetic acid

>  <IUPAC_CONDENSED>  (923) 
Me-Phg

>  <IUPAC>  (923) 
(2S)-2-(methylamino)-2-phenylacetic acid

>  <TYPE>  (923) 
Backbone

>  <CLASS>  (923) 
alpha

>  <ANALOG>  (923) 
X

>  <MOL_WT>  (923) 
165.19199999999995

>  <LOGP>  (923) 
1.0317

>  <TPSA>  (923) 
49.33

>  <POPULARITY>  (923) 
20.6

>  <PROTECTED>  (923) 
TRUE

>  <SMILES>  (923) 
N(C)[C@@H](c1(ccccc1))C(=O)O

>  <INCHIKEY>  (923) 
HGIPIEYZJPULIQ-QMMMGPOBSA-N

$$$$
Tyr_35diNO2
     RDKit          2D

 19 19  0  0  0  0  0  0  0  0999 V2000
   -2.8444    1.3921    0.0000 N   0  0  0  0  0  0  0  0  0  0  0  0
   -3.1659   -0.0730    0.0000 C   0  0  0  0  0  0  0  0  0  0  0  0
   -2.0579   -1.0841    0.0000 C   0  0  0  0  0  0  0  0  0  0  0  0
   -0.6282   -0.6300    0.0000 C   0  0  0  0  0  0  0  0  0  0  0  0
   -0.3067    0.8352    0.0000 C   0  0  0  0  0  0  0  0  0  0  0  0
    1.1229    1.2893    0.0000 C   0  0  0  0  0  0  0  0  0  0  0  0
    2.2310    0.2782    0.0000 C   0  0  0  0  0  0  0  0  0  0  0  0
    3.6606    0.7323    0.0000 O   0  0  0  0  0  0  0  0  0  0  0  0
    1.9094   -1.1869    0.0000 C   0  0  0  0  0  0  0  0  0  0  0  0
    0.4798   -1.6410    0.0000 C   0  0  0  0  0  0  0  0  0  0  0  0
    3.0175   -2.1979    0.0000 N   0  0  0  0  0  0  0  0  0  0  0  0
    4.4471   -1.7438    0.0000 O   0  0  0  0  0  0  0  0  0  0  0  0
    2.6960   -3.6631    0.0000 O   0  0  0  0  0  0  0  0  0  0  0  0
    1.4445    2.7544    0.0000 N   0  0  0  0  0  0  0  0  0  0  0  0
    0.3364    3.7654    0.0000 O   0  0  0  0  0  0  0  0  0  0  0  0
    2.8741    3.2085    0.0000 O   0  0  0  0  0  0  0  0  0  0  0  0
   -4.5955   -0.5271    0.0000 C   0  0  0  0  0  0  0  0  0  0  0  0
   -4.9171   -1.9923    0.0000 O   0  0  0  0  0  0  0  0  0  0  0  0
   -5.7036    0.4839    0.0000 O   0  0  0  0  0  0  0  0  0  0  0  0
  2  1  1  1
  2  3  1  0
  3  4  1  0
  4  5  1  0
  5  6  2  0
  6  7  1  0
  7  8  1  0
  7  9  2  0
  9 10  1  0
  9 11  1  0
 11 12  2  0
 11 13  1  0
  6 14  1  0
 14 15  2  0
 14 16  1  0
  2 17  1  0
 17 18  2  0
 17 19  1  0
 10  4  2  0
M  CHG  4  11   1  13  -1  14   1  16  -1
M  END
>  <rName>  (924) 
Tyr_35diNO2

>  <PQ_SYMBOL>  (924) 
Tyr_35diNO2

>  <FULL_NAME>  (924) 
3,5-Dinitro-L-tyrosine

>  <IUPAC_CONDENSED>  (924) 
Tyr(3,5-diNO2)

>  <IUPAC>  (924) 
(2S)-2-amino-3-(4-hydroxy-3,5-dinitrophenyl)propanoic acid

>  <TYPE>  (924) 
Backbone

>  <CLASS>  (924) 
alpha

>  <ANALOG>  (924) 
Tyr

>  <MOL_WT>  (924) 
271.18499999999995

>  <LOGP>  (924) 
0.1630000000000001

>  <TPSA>  (924) 
169.82999999999998

>  <POPULARITY>  (924) 
9.1

>  <PROTECTED>  (924) 
TRUE

>  <SMILES>  (924) 
N[C@@H](Cc1(cc(c(O)c(c1)[N+](=O)[O-])[N+](=O)[O-]))C(=O)O

>  <INCHIKEY>  (924) 
SAZOSDSFLRXREA-YFKPBYRVSA-N

$$$$
Phe_bROH
     RDKit          2D

 13 13  0  0  0  0  0  0  0  0999 V2000
   -1.1110    1.8899    0.0000 N   0  0  0  0  0  0  0  0  0  0  0  0
   -1.5339    0.4508    0.0000 C   0  0  0  0  0  0  0  0  0  0  0  0
   -0.4991   -0.6350    0.0000 C   0  0  0  0  0  0  0  0  0  0  0  0
   -0.9220   -2.0742    0.0000 O   0  0  0  0  0  0  0  0  0  0  0  0
    0.9587   -0.2818    0.0000 C   0  0  0  0  0  0  0  0  0  0  0  0
    1.3817    1.1574    0.0000 C   0  0  0  0  0  0  0  0  0  0  0  0
    2.8395    1.5107    0.0000 C   0  0  0  0  0  0  0  0  0  0  0  0
    3.8743    0.4248    0.0000 C   0  0  0  0  0  0  0  0  0  0  0  0
    3.4514   -1.0143    0.0000 C   0  0  0  0  0  0  0  0  0  0  0  0
    1.9936   -1.3676    0.0000 C   0  0  0  0  0  0  0  0  0  0  0  0
   -2.9917    0.0975    0.0000 C   0  0  0  0  0  0  0  0  0  0  0  0
   -3.4147   -1.3416    0.0000 O   0  0  0  0  0  0  0  0  0  0  0  0
   -4.0266    1.1834    0.0000 O   0  0  0  0  0  0  0  0  0  0  0  0
  2  1  1  1
  2  3  1  0
  3  4  1  1
  3  5  1  0
  5  6  2  0
  6  7  1  0
  7  8  2  0
  8  9  1  0
  9 10  2  0
  2 11  1  0
 11 12  2  0
 11 13  1  0
 10  5  1  0
M  END
>  <rName>  (925) 
Phe_bROH

>  <PQ_SYMBOL>  (925) 
Phe_bROH

>  <FULL_NAME>  (925) 
L-threo-3-Phenylserine

>  <IUPAC_CONDENSED>  (925) 
Phe(bR-OH)

>  <IUPAC>  (925) 
(2S,3R)-2-amino-3-hydroxy-3-phenylpropanoic acid

>  <TYPE>  (925) 
Backbone

>  <CLASS>  (925) 
alpha

>  <ANALOG>  (925) 
Phe

>  <MOL_WT>  (925) 
181.19099999999997

>  <LOGP>  (925) 
0.13190000000000007

>  <TPSA>  (925) 
83.55

>  <POPULARITY>  (925) 
17.4

>  <PROTECTED>  (925) 
TRUE

>  <SMILES>  (925) 
N[C@@H]([C@H](O)c1(ccccc1))C(=O)O

>  <INCHIKEY>  (925) 
VHVGNTVUSQUXPS-JGVFFNPUSA-N

$$$$
2Nal_3SMe
     RDKit          2D

 17 18  0  0  0  0  0  0  0  0999 V2000
   -2.5824   -1.8747    0.0000 N   0  0  0  0  0  0  0  0  0  0  0  0
   -2.8808   -0.4047    0.0000 C   0  0  0  0  0  0  0  0  0  0  0  0
   -1.7569    0.5888    0.0000 C   0  0  0  0  0  0  0  0  0  0  0  0
   -2.0553    2.0588    0.0000 C   0  0  0  0  0  0  0  0  0  0  0  0
   -0.3347    0.1121    0.0000 C   0  0  0  0  0  0  0  0  0  0  0  0
   -0.0363   -1.3579    0.0000 C   0  0  0  0  0  0  0  0  0  0  0  0
    1.3860   -1.8345    0.0000 C   0  0  0  0  0  0  0  0  0  0  0  0
    2.5099   -0.8411    0.0000 C   0  0  0  0  0  0  0  0  0  0  0  0
    3.9321   -1.3177    0.0000 C   0  0  0  0  0  0  0  0  0  0  0  0
    5.0560   -0.3243    0.0000 C   0  0  0  0  0  0  0  0  0  0  0  0
    4.7577    1.1457    0.0000 C   0  0  0  0  0  0  0  0  0  0  0  0
    3.3354    1.6224    0.0000 C   0  0  0  0  0  0  0  0  0  0  0  0
    2.2115    0.6289    0.0000 C   0  0  0  0  0  0  0  0  0  0  0  0
    0.7892    1.1056    0.0000 C   0  0  0  0  0  0  0  0  0  0  0  0
   -4.3031    0.0720    0.0000 C   0  0  0  0  0  0  0  0  0  0  0  0
   -4.6015    1.5420    0.0000 O   0  0  0  0  0  0  0  0  0  0  0  0
   -5.4270   -0.9215    0.0000 O   0  0  0  0  0  0  0  0  0  0  0  0
  2  1  1  6
  2  3  1  0
  3  4  1  1
  3  5  1  0
  5  6  1  0
  6  7  2  0
  7  8  1  0
  8  9  2  0
  9 10  1  0
 10 11  2  0
 11 12  1  0
 12 13  2  0
 13 14  1  0
  2 15  1  0
 15 16  2  0
 15 17  1  0
 13  8  1  0
 14  5  2  0
M  END
>  <rName>  (926) 
2Nal_3SMe

>  <PQ_SYMBOL>  (926) 
2Nal_3SMe

>  <FULL_NAME>  (926) 
(2S,3S)-2-Amino-3-(2-naphthyl)butyric acid

>  <IUPAC_CONDENSED>  (926) 
2Nal(3S-Me)

>  <IUPAC>  (926) 
(2S,3S)-2-amino-3-(naphthalen-2-yl)butanoic acid

>  <TYPE>  (926) 
Backbone

>  <CLASS>  (926) 
alpha

>  <ANALOG>  (926) 
Phe

>  <MOL_WT>  (926) 
229.279

>  <LOGP>  (926) 
2.3552

>  <TPSA>  (926) 
63.32000000000001

>  <POPULARITY>  (926) 
8.8

>  <PROTECTED>  (926) 
TRUE

>  <SMILES>  (926) 
N[C@@H]([C@@H](C)c2(ccc1(ccccc1c2)))C(=O)O

>  <INCHIKEY>  (926) 
LULOASYNEZFLJY-ZANVPECISA-N

$$$$
D-Phe_4Et
     RDKit          2D

 14 14  0  0  0  0  0  0  0  0999 V2000
   -2.0397    1.6757    0.0000 N   0  0  0  0  0  0  0  0  0  0  0  0
   -2.4395    0.2299    0.0000 C   0  0  0  0  0  0  0  0  0  0  0  0
   -1.3873   -0.8392    0.0000 C   0  0  0  0  0  0  0  0  0  0  0  0
    0.0646   -0.4625    0.0000 C   0  0  0  0  0  0  0  0  0  0  0  0
    0.4644    0.9832    0.0000 C   0  0  0  0  0  0  0  0  0  0  0  0
    1.9164    1.3598    0.0000 C   0  0  0  0  0  0  0  0  0  0  0  0
    2.9685    0.2907    0.0000 C   0  0  0  0  0  0  0  0  0  0  0  0
    2.5687   -1.1550    0.0000 C   0  0  0  0  0  0  0  0  0  0  0  0
    1.1168   -1.5316    0.0000 C   0  0  0  0  0  0  0  0  0  0  0  0
    4.4205    0.6674    0.0000 C   0  0  0  0  0  0  0  0  0  0  0  0
    5.4726   -0.4017    0.0000 C   0  0  0  0  0  0  0  0  0  0  0  0
   -3.8914   -0.1467    0.0000 C   0  0  0  0  0  0  0  0  0  0  0  0
   -4.2912   -1.5924    0.0000 O   0  0  0  0  0  0  0  0  0  0  0  0
   -4.9436    0.9224    0.0000 O   0  0  0  0  0  0  0  0  0  0  0  0
  2  1  1  6
  2  3  1  0
  3  4  1  0
  4  5  1  0
  5  6  2  0
  6  7  1  0
  7  8  2  0
  8  9  1  0
  7 10  1  0
 10 11  1  0
  2 12  1  0
 12 13  2  0
 12 14  1  0
  9  4  2  0
M  END
>  <rName>  (927) 
D-Phe_4Et

>  <PQ_SYMBOL>  (927) 
D-Phe_4Et

>  <FULL_NAME>  (927) 
(R)-2-amino-3-(4-ethylphenyl)propanoic acid

>  <IUPAC_CONDENSED>  (927) 
D-Phe(4-Et)

>  <IUPAC>  (927) 
(2R)-2-amino-3-(4-ethylphenyl)propanoic acid

>  <TYPE>  (927) 
Backbone

>  <CLASS>  (927) 
alpha

>  <ANALOG>  (927) 
Phe

>  <MOL_WT>  (927) 
193.24599999999995

>  <LOGP>  (927) 
1.2034000000000002

>  <TPSA>  (927) 
63.32000000000001

>  <POPULARITY>  (927) 
9.5

>  <PROTECTED>  (927) 
TRUE

>  <SMILES>  (927) 
N[C@H](Cc1(ccc(cc1)CC))C(=O)O

>  <INCHIKEY>  (927) 
AWKDBHFQJATNBQ-SNVBAGLBSA-N

$$$$
Asu
     RDKit          2D

 13 12  0  0  0  0  0  0  0  0999 V2000
   -2.9072    1.8790    0.0000 N   0  0  0  0  0  0  0  0  0  0  0  0
   -2.9824    0.3808    0.0000 C   0  0  0  0  0  0  0  0  0  0  0  0
   -1.7226   -0.4334    0.0000 C   0  0  0  0  0  0  0  0  0  0  0  0
   -0.3876    0.2505    0.0000 C   0  0  0  0  0  0  0  0  0  0  0  0
    0.8722   -0.5637    0.0000 C   0  0  0  0  0  0  0  0  0  0  0  0
    2.2072    0.1202    0.0000 C   0  0  0  0  0  0  0  0  0  0  0  0
    3.4670   -0.6940    0.0000 C   0  0  0  0  0  0  0  0  0  0  0  0
    4.8020   -0.0101    0.0000 C   0  0  0  0  0  0  0  0  0  0  0  0
    4.8772    1.4880    0.0000 O   0  0  0  0  0  0  0  0  0  0  0  0
    6.0618   -0.8243    0.0000 O   0  0  0  0  0  0  0  0  0  0  0  0
   -4.3175   -0.3030    0.0000 C   0  0  0  0  0  0  0  0  0  0  0  0
   -4.3927   -1.8012    0.0000 O   0  0  0  0  0  0  0  0  0  0  0  0
   -5.5772    0.5112    0.0000 O   0  0  0  0  0  0  0  0  0  0  0  0
  2  1  1  1
  2  3  1  0
  3  4  1  0
  4  5  1  0
  5  6  1  0
  6  7  1  0
  7  8  1  0
  8  9  2  0
  8 10  1  0
  2 11  1  0
 11 12  2  0
 11 13  1  0
M  END
>  <rName>  (928) 
Asu

>  <PQ_SYMBOL>  (928) 
Asu

>  <FULL_NAME>  (928) 
(S)-2-Aminooctanedioic acid

>  <IUPAC_CONDENSED>  (928) 
Asu

>  <IUPAC>  (928) 
(2S)-2-aminooctanedioic acid

>  <TYPE>  (928) 
Backbone

>  <CLASS>  (928) 
alpha

>  <ANALOG>  (928) 
X

>  <MOL_WT>  (928) 
189.211

>  <LOGP>  (928) 
0.43339999999999945

>  <TPSA>  (928) 
100.62000000000002

>  <POPULARITY>  (928) 
21.3

>  <PROTECTED>  (928) 
TRUE

>  <SMILES>  (928) 
N[C@@H](CCCCCC(=O)O)C(=O)O

>  <INCHIKEY>  (928) 
YOFPFYYTUIARDI-LURJTMIESA-N

$$$$
D-aMeAze
     RDKit          2D

  8  8  0  0  0  0  0  0  0  0999 V2000
    1.6713   -0.8704    0.0000 N   0  0  0  0  0  0  0  0  0  0  0  0
    0.2785   -0.3134    0.0000 C   0  0  0  0  0  0  0  0  0  0  0  0
   -0.2785   -1.7061    0.0000 C   0  0  0  0  0  0  0  0  0  0  0  0
    0.8356    1.0794    0.0000 C   0  0  0  0  0  0  0  0  0  0  0  0
    2.2283    0.5223    0.0000 C   0  0  0  0  0  0  0  0  0  0  0  0
   -1.1142    0.2437    0.0000 C   0  0  0  0  0  0  0  0  0  0  0  0
   -2.2930   -0.6839    0.0000 O   0  0  0  0  0  0  0  0  0  0  0  0
   -1.3281    1.7284    0.0000 O   0  0  0  0  0  0  0  0  0  0  0  0
  1  2  1  0
  2  3  1  6
  2  4  1  0
  4  5  1  0
  2  6  1  0
  6  7  2  0
  6  8  1  0
  5  1  1  0
M  END
>  <rName>  (929) 
D-aMeAze

>  <PQ_SYMBOL>  (929) 
D-aMeAze

>  <FULL_NAME>  (929) 
(2R)-2-methylazetidine-2-carboxylic acid

>  <IUPAC_CONDENSED>  (929) 
D-aMeAze

>  <IUPAC>  (929) 
(2R)-2-methylazetidine-2-carboxylic acid

>  <TYPE>  (929) 
Backbone

>  <CLASS>  (929) 
alpha

>  <ANALOG>  (929) 
Pro

>  <MOL_WT>  (929) 
115.13199999999999

>  <LOGP>  (929) 
-0.17700000000000032

>  <TPSA>  (929) 
49.33

>  <POPULARITY>  (929) 
9.6

>  <PROTECTED>  (929) 
TRUE

>  <SMILES>  (929) 
N1[C@](C)(CC1)C(=O)O

>  <INCHIKEY>  (929) 
ADTSDDJGGMQTIE-RXMQYKEDSA-N

$$$$
NMe-Tyr_Me
     RDKit          2D

 15 15  0  0  0  0  0  0  0  0999 V2000
   -1.9222    1.3767    0.0000 N   0  0  0  0  0  0  0  0  0  0  0  0
   -3.0383    2.3788    0.0000 C   0  0  0  0  0  0  0  0  0  0  0  0
   -2.2320   -0.0910    0.0000 C   0  0  0  0  0  0  0  0  0  0  0  0
   -1.1158   -1.0931    0.0000 C   0  0  0  0  0  0  0  0  0  0  0  0
    0.3101   -0.6276    0.0000 C   0  0  0  0  0  0  0  0  0  0  0  0
    0.6199    0.8401    0.0000 C   0  0  0  0  0  0  0  0  0  0  0  0
    2.0458    1.3056    0.0000 C   0  0  0  0  0  0  0  0  0  0  0  0
    3.1619    0.3035    0.0000 C   0  0  0  0  0  0  0  0  0  0  0  0
    4.5879    0.7690    0.0000 O   0  0  0  0  0  0  0  0  0  0  0  0
    5.7040   -0.2331    0.0000 C   0  0  0  0  0  0  0  0  0  0  0  0
    2.8521   -1.1642    0.0000 C   0  0  0  0  0  0  0  0  0  0  0  0
    1.4262   -1.6297    0.0000 C   0  0  0  0  0  0  0  0  0  0  0  0
   -3.6579   -0.5565    0.0000 C   0  0  0  0  0  0  0  0  0  0  0  0
   -3.9677   -2.0242    0.0000 O   0  0  0  0  0  0  0  0  0  0  0  0
   -4.7740    0.4456    0.0000 O   0  0  0  0  0  0  0  0  0  0  0  0
  1  2  1  0
  1  3  1  0
  3  4  1  1
  4  5  1  0
  5  6  1  0
  6  7  2  0
  7  8  1  0
  8  9  1  0
  9 10  1  0
  8 11  2  0
 11 12  1  0
  3 13  1  0
 13 14  2  0
 13 15  1  0
 12  5  2  0
M  END
>  <rName>  (930) 
NMe-Tyr_Me

>  <PQ_SYMBOL>  (930) 
NMe-Tyr_Me

>  <FULL_NAME>  (930) 
N,O-Dimethyltyrosine

>  <IUPAC_CONDENSED>  (930) 
Me-Tyr(Me)

>  <IUPAC>  (930) 
(2S)-3-(4-methoxyphenyl)-2-(methylamino)propanoic acid

>  <TYPE>  (930) 
Backbone

>  <CLASS>  (930) 
alpha

>  <ANALOG>  (930) 
Tyr

>  <MOL_WT>  (930) 
209.24499999999998

>  <LOGP>  (930) 
0.9102999999999997

>  <TPSA>  (930) 
58.56

>  <POPULARITY>  (930) 
17

>  <PROTECTED>  (930) 
TRUE

>  <SMILES>  (930) 
N(C)[C@@H](Cc1(ccc(OC)cc1))C(=O)O

>  <INCHIKEY>  (930) 
QESMMBKGCOSBNL-JTQLQIEISA-N

$$$$
Lys_Me
     RDKit          2D

 11 10  0  0  0  0  0  0  0  0999 V2000
    1.9630   -1.8884    0.0000 N   0  0  0  0  0  0  0  0  0  0  0  0
    1.9989   -0.3888    0.0000 C   0  0  0  0  0  0  0  0  0  0  0  0
    0.7181    0.3920    0.0000 C   0  0  0  0  0  0  0  0  0  0  0  0
   -0.5985   -0.3267    0.0000 C   0  0  0  0  0  0  0  0  0  0  0  0
   -1.8792    0.4541    0.0000 C   0  0  0  0  0  0  0  0  0  0  0  0
   -3.1958   -0.2646    0.0000 C   0  0  0  0  0  0  0  0  0  0  0  0
   -4.4765    0.5162    0.0000 N   0  0  0  0  0  0  0  0  0  0  0  0
   -5.7931   -0.2025    0.0000 C   0  0  0  0  0  0  0  0  0  0  0  0
    3.3155    0.3299    0.0000 C   0  0  0  0  0  0  0  0  0  0  0  0
    3.3513    1.8295    0.0000 O   0  0  0  0  0  0  0  0  0  0  0  0
    4.5962   -0.4509    0.0000 O   0  0  0  0  0  0  0  0  0  0  0  0
  2  1  1  1
  2  3  1  0
  3  4  1  0
  4  5  1  0
  5  6  1  0
  6  7  1  0
  7  8  1  0
  2  9  1  0
  9 10  2  0
  9 11  1  0
M  END
>  <rName>  (931) 
Lys_Me

>  <PQ_SYMBOL>  (931) 
Lys_Me

>  <FULL_NAME>  (931) 
N(6)-Methyllysine

>  <IUPAC_CONDENSED>  (931) 
Lys(Me)

>  <IUPAC>  (931) 
(2S)-2-amino-6-(methylamino)hexanoic acid

>  <TYPE>  (931) 
Backbone

>  <CLASS>  (931) 
alpha

>  <ANALOG>  (931) 
Lys

>  <MOL_WT>  (931) 
160.217

>  <LOGP>  (931) 
-0.21200000000000047

>  <TPSA>  (931) 
75.35

>  <POPULARITY>  (931) 
44.5

>  <PROTECTED>  (931) 
TRUE

>  <SMILES>  (931) 
N[C@@H](CCCCNC)C(=O)O

>  <INCHIKEY>  (931) 
PQNASZJZHFPQLE-LURJTMIESA-N

$$$$
Ala_benzothiazol2yl
     RDKit          2D

 15 16  0  0  0  0  0  0  0  0999 V2000
   -2.2312    1.6742    0.0000 N   0  0  0  0  0  0  0  0  0  0  0  0
   -2.7125    0.2535    0.0000 C   0  0  0  0  0  0  0  0  0  0  0  0
   -1.7228   -0.8736    0.0000 C   0  0  0  0  0  0  0  0  0  0  0  0
   -0.2518   -0.5801    0.0000 C   0  0  0  0  0  0  0  0  0  0  0  0
    0.8503   -1.5976    0.0000 N   0  0  0  0  0  0  0  0  0  0  0  0
    2.1586   -0.8639    0.0000 C   0  0  0  0  0  0  0  0  0  0  0  0
    3.5793   -1.3452    0.0000 C   0  0  0  0  0  0  0  0  0  0  0  0
    4.7064   -0.3555    0.0000 C   0  0  0  0  0  0  0  0  0  0  0  0
    4.4129    1.1155    0.0000 C   0  0  0  0  0  0  0  0  0  0  0  0
    2.9922    1.5968    0.0000 C   0  0  0  0  0  0  0  0  0  0  0  0
    1.8650    0.6071    0.0000 C   0  0  0  0  0  0  0  0  0  0  0  0
    0.3753    0.7825    0.0000 S   0  0  0  0  0  0  0  0  0  0  0  0
   -4.1835   -0.0400    0.0000 C   0  0  0  0  0  0  0  0  0  0  0  0
   -4.6648   -1.4607    0.0000 O   0  0  0  0  0  0  0  0  0  0  0  0
   -5.1732    1.0872    0.0000 O   0  0  0  0  0  0  0  0  0  0  0  0
  2  1  1  1
  2  3  1  0
  3  4  1  0
  4  5  2  0
  5  6  1  0
  6  7  2  0
  7  8  1  0
  8  9  2  0
  9 10  1  0
 10 11  2  0
 11 12  1  0
  2 13  1  0
 13 14  2  0
 13 15  1  0
 11  6  1  0
 12  4  1  0
M  END
>  <rName>  (932) 
Ala_benzothiazol2yl

>  <PQ_SYMBOL>  (932) 
Ala_benzothiazol2yl

>  <FULL_NAME>  (932) 
beta-(2-Benzothiazolyl)-L-alanine

>  <IUPAC_CONDENSED>  (932) 
Ala(benzothiazol-2-yl)

>  <IUPAC>  (932) 
(2S)-2-amino-3-(benzothiazol-2-yl)propanoic acid

>  <TYPE>  (932) 
Backbone

>  <CLASS>  (932) 
alpha

>  <ANALOG>  (932) 
Phe

>  <MOL_WT>  (932) 
222.26899999999998

>  <LOGP>  (932) 
1.2507000000000001

>  <TPSA>  (932) 
76.21

>  <POPULARITY>  (932) 
9.6

>  <PROTECTED>  (932) 
TRUE

>  <SMILES>  (932) 
N[C@@H](Cc2(nc1(ccccc1s2)))C(=O)O

>  <INCHIKEY>  (932) 
DNDVHMGBCGSRIY-LURJTMIESA-N

$$$$
aMeTyr
     RDKit          2D

 14 14  0  0  0  0  0  0  0  0999 V2000
   -0.7614    1.4549    0.0000 N   0  0  0  0  0  0  0  0  0  0  0  0
   -1.9195    0.5015    0.0000 C   0  0  0  0  0  0  0  0  0  0  0  0
   -2.8728    1.6596    0.0000 C   0  0  0  0  0  0  0  0  0  0  0  0
   -0.9661   -0.6566    0.0000 C   0  0  0  0  0  0  0  0  0  0  0  0
    0.5135   -0.4100    0.0000 C   0  0  0  0  0  0  0  0  0  0  0  0
    1.0397    0.9947    0.0000 C   0  0  0  0  0  0  0  0  0  0  0  0
    2.5193    1.2413    0.0000 C   0  0  0  0  0  0  0  0  0  0  0  0
    3.4726    0.0832    0.0000 C   0  0  0  0  0  0  0  0  0  0  0  0
    4.9522    0.3298    0.0000 O   0  0  0  0  0  0  0  0  0  0  0  0
    2.9464   -1.3215    0.0000 C   0  0  0  0  0  0  0  0  0  0  0  0
    1.4668   -1.5681    0.0000 C   0  0  0  0  0  0  0  0  0  0  0  0
   -3.0776   -0.4518    0.0000 C   0  0  0  0  0  0  0  0  0  0  0  0
   -4.4822    0.0744    0.0000 O   0  0  0  0  0  0  0  0  0  0  0  0
   -2.8310   -1.9314    0.0000 O   0  0  0  0  0  0  0  0  0  0  0  0
  1  2  1  0
  2  3  1  6
  2  4  1  0
  4  5  1  0
  5  6  1  0
  6  7  2  0
  7  8  1  0
  8  9  1  0
  8 10  2  0
 10 11  1  0
  2 12  1  0
 12 13  2  0
 12 14  1  0
 11  5  2  0
M  END
>  <rName>  (933) 
aMeTyr

>  <PQ_SYMBOL>  (933) 
aMeTyr

>  <FULL_NAME>  (933) 
Metyrosine

>  <IUPAC_CONDENSED>  (933) 
aMeTyr

>  <IUPAC>  (933) 
(2S)-2-amino-2-((4-hydroxyphenyl)methyl)propanoic acid

>  <TYPE>  (933) 
Backbone

>  <CLASS>  (933) 
alpha

>  <ANALOG>  (933) 
Tyr

>  <MOL_WT>  (933) 
195.218

>  <LOGP>  (933) 
0.7366999999999999

>  <TPSA>  (933) 
83.55

>  <POPULARITY>  (933) 
16.2

>  <PROTECTED>  (933) 
TRUE

>  <SMILES>  (933) 
N[C@@](C)(Cc1(ccc(O)cc1))C(=O)O

>  <INCHIKEY>  (933) 
NHTGHBARYWONDQ-JTQLQIEISA-N

$$$$
Gly_cPr
     RDKit          2D

  8  8  0  0  0  0  0  0  0  0999 V2000
   -0.5237   -2.0692    0.0000 N   0  0  0  0  0  0  0  0  0  0  0  0
   -0.2372   -0.5968    0.0000 C   0  0  0  0  0  0  0  0  0  0  0  0
    1.1811   -0.1087    0.0000 C   0  0  0  0  0  0  0  0  0  0  0  0
    2.6535   -0.3952    0.0000 C   0  0  0  0  0  0  0  0  0  0  0  0
    2.1655    1.0231    0.0000 C   0  0  0  0  0  0  0  0  0  0  0  0
   -1.3691    0.3875    0.0000 C   0  0  0  0  0  0  0  0  0  0  0  0
   -1.0826    1.8599    0.0000 O   0  0  0  0  0  0  0  0  0  0  0  0
   -2.7875   -0.1006    0.0000 O   0  0  0  0  0  0  0  0  0  0  0  0
  2  1  1  6
  2  3  1  0
  3  4  1  0
  4  5  1  0
  2  6  1  0
  6  7  2  0
  6  8  1  0
  5  3  1  0
M  END
>  <rName>  (934) 
Gly_cPr

>  <PQ_SYMBOL>  (934) 
Gly_cPr

>  <FULL_NAME>  (934) 
L-Cyclopropylglycine

>  <IUPAC_CONDENSED>  (934) 
Gly(cPr)

>  <IUPAC>  (934) 
(2S)-2-amino-2-cyclopropylacetic acid

>  <TYPE>  (934) 
Backbone

>  <CLASS>  (934) 
alpha

>  <ANALOG>  (934) 
X

>  <MOL_WT>  (934) 
115.13199999999999

>  <LOGP>  (934) 
-0.19170000000000004

>  <TPSA>  (934) 
63.32000000000001

>  <POPULARITY>  (934) 
14.4

>  <PROTECTED>  (934) 
TRUE

>  <SMILES>  (934) 
N[C@@H](C1(CC1))C(=O)O

>  <INCHIKEY>  (934) 
BUSBCPMSNBMUMT-BYPYZUCNSA-N

$$$$
D-Trp_2Me
     RDKit          2D

 16 17  0  0  0  0  0  0  0  0999 V2000
   -2.5941   -1.4623    0.0000 N   0  0  0  0  0  0  0  0  0  0  0  0
   -2.4986    0.0347    0.0000 C   0  0  0  0  0  0  0  0  0  0  0  0
   -1.1544    0.7005    0.0000 C   0  0  0  0  0  0  0  0  0  0  0  0
    0.0942   -0.1307    0.0000 C   0  0  0  0  0  0  0  0  0  0  0  0
    0.1557   -1.6294    0.0000 C   0  0  0  0  0  0  0  0  0  0  0  0
   -1.0206   -2.5601    0.0000 C   0  0  0  0  0  0  0  0  0  0  0  0
    1.6001   -2.0341    0.0000 N   0  0  0  0  0  0  0  0  0  0  0  0
    2.4313   -0.7854    0.0000 C   0  0  0  0  0  0  0  0  0  0  0  0
    3.9154   -0.5676    0.0000 C   0  0  0  0  0  0  0  0  0  0  0  0
    4.4688    0.8266    0.0000 C   0  0  0  0  0  0  0  0  0  0  0  0
    3.5381    2.0030    0.0000 C   0  0  0  0  0  0  0  0  0  0  0  0
    2.0540    1.7851    0.0000 C   0  0  0  0  0  0  0  0  0  0  0  0
    1.5006    0.3909    0.0000 C   0  0  0  0  0  0  0  0  0  0  0  0
   -3.7473    0.8659    0.0000 C   0  0  0  0  0  0  0  0  0  0  0  0
   -3.6518    2.3628    0.0000 O   0  0  0  0  0  0  0  0  0  0  0  0
   -5.0914    0.2001    0.0000 O   0  0  0  0  0  0  0  0  0  0  0  0
  2  1  1  1
  2  3  1  0
  3  4  1  0
  4  5  2  0
  5  6  1  0
  5  7  1  0
  7  8  1  0
  8  9  2  0
  9 10  1  0
 10 11  2  0
 11 12  1  0
 12 13  2  0
  2 14  1  0
 14 15  2  0
 14 16  1  0
 13  4  1  0
 13  8  1  0
M  END
>  <rName>  (935) 
D-Trp_2Me

>  <PQ_SYMBOL>  (935) 
D-Trp_2Me

>  <FULL_NAME>  (935) 
2-Methyl-d-tryptophan

>  <IUPAC_CONDENSED>  (935) 
D-Trp(2-Me)

>  <IUPAC>  (935) 
(2R)-2-amino-3-(2-methyl-1H-indol-3-yl)propanoic acid

>  <TYPE>  (935) 
Backbone

>  <CLASS>  (935) 
alpha

>  <ANALOG>  (935) 
Trp

>  <MOL_WT>  (935) 
218.256

>  <LOGP>  (935) 
1.4307200000000002

>  <TPSA>  (935) 
79.11

>  <POPULARITY>  (935) 
13.2

>  <PROTECTED>  (935) 
TRUE

>  <SMILES>  (935) 
N[C@H](Cc1(c(C)[nH]c2(ccccc12)))C(=O)O

>  <INCHIKEY>  (935) 
BXJSOEWOQDVGJW-SNVBAGLBSA-N

$$$$
Tyr_3OMe
     RDKit          2D

 15 15  0  0  0  0  0  0  0  0999 V2000
   -2.4309    1.6735    0.0000 N   0  0  0  0  0  0  0  0  0  0  0  0
   -2.5936    0.1823    0.0000 C   0  0  0  0  0  0  0  0  0  0  0  0
   -1.3836   -0.7041    0.0000 C   0  0  0  0  0  0  0  0  0  0  0  0
   -0.0108   -0.0994    0.0000 C   0  0  0  0  0  0  0  0  0  0  0  0
    0.1518    1.3917    0.0000 C   0  0  0  0  0  0  0  0  0  0  0  0
    1.5245    1.9964    0.0000 C   0  0  0  0  0  0  0  0  0  0  0  0
    2.7346    1.1100    0.0000 C   0  0  0  0  0  0  0  0  0  0  0  0
    4.1073    1.7147    0.0000 O   0  0  0  0  0  0  0  0  0  0  0  0
    2.5719   -0.3812    0.0000 C   0  0  0  0  0  0  0  0  0  0  0  0
    3.7820   -1.2676    0.0000 O   0  0  0  0  0  0  0  0  0  0  0  0
    3.6193   -2.7588    0.0000 C   0  0  0  0  0  0  0  0  0  0  0  0
    1.1992   -0.9859    0.0000 C   0  0  0  0  0  0  0  0  0  0  0  0
   -3.9663   -0.4224    0.0000 C   0  0  0  0  0  0  0  0  0  0  0  0
   -4.1290   -1.9135    0.0000 O   0  0  0  0  0  0  0  0  0  0  0  0
   -5.1764    0.4641    0.0000 O   0  0  0  0  0  0  0  0  0  0  0  0
  2  1  1  1
  2  3  1  0
  3  4  1  0
  4  5  1  0
  5  6  2  0
  6  7  1  0
  7  8  1  0
  7  9  2  0
  9 10  1  0
 10 11  1  0
  9 12  1  0
  2 13  1  0
 13 14  2  0
 13 15  1  0
 12  4  2  0
M  END
>  <rName>  (936) 
Tyr_3OMe

>  <PQ_SYMBOL>  (936) 
Tyr_3OMe

>  <FULL_NAME>  (936) 
3-Methoxy-L-tyrosine

>  <IUPAC_CONDENSED>  (936) 
Tyr(3-OMe)

>  <IUPAC>  (936) 
(2S)-2-amino-3-(4-hydroxy-3-methoxyphenyl)propanoic acid

>  <TYPE>  (936) 
Backbone

>  <CLASS>  (936) 
alpha

>  <ANALOG>  (936) 
Tyr

>  <MOL_WT>  (936) 
211.21699999999996

>  <LOGP>  (936) 
0.35519999999999974

>  <TPSA>  (936) 
92.78000000000002

>  <POPULARITY>  (936) 
18.3

>  <PROTECTED>  (936) 
TRUE

>  <SMILES>  (936) 
N[C@@H](Cc1(ccc(O)c(OC)c1))C(=O)O

>  <INCHIKEY>  (936) 
PFDUUKDQEHURQC-ZETCQYMHSA-N

$$$$
Gly_cPent
     RDKit          2D

 10 10  0  0  0  0  0  0  0  0999 V2000
   -1.2726   -2.0834    0.0000 N   0  0  0  0  0  0  0  0  0  0  0  0
   -0.8797   -0.6358    0.0000 C   0  0  0  0  0  0  0  0  0  0  0  0
    0.5705   -0.2522    0.0000 C   0  0  0  0  0  0  0  0  0  0  0  0
    1.7331   -1.2000    0.0000 C   0  0  0  0  0  0  0  0  0  0  0  0
    2.9938   -0.3872    0.0000 C   0  0  0  0  0  0  0  0  0  0  0  0
    2.6103    1.0630    0.0000 C   0  0  0  0  0  0  0  0  0  0  0  0
    1.1126    1.1464    0.0000 C   0  0  0  0  0  0  0  0  0  0  0  0
   -1.9369    0.4284    0.0000 C   0  0  0  0  0  0  0  0  0  0  0  0
   -1.5439    1.8760    0.0000 O   0  0  0  0  0  0  0  0  0  0  0  0
   -3.3870    0.0449    0.0000 O   0  0  0  0  0  0  0  0  0  0  0  0
  2  1  1  6
  2  3  1  0
  3  4  1  0
  4  5  1  0
  5  6  1  0
  6  7  1  0
  2  8  1  0
  8  9  2  0
  8 10  1  0
  7  3  1  0
M  END
>  <rName>  (937) 
Gly_cPent

>  <PQ_SYMBOL>  (937) 
Gly_cPent

>  <FULL_NAME>  (937) 
L-Cyclopentylglycine

>  <IUPAC_CONDENSED>  (937) 
Gly(cPent)

>  <IUPAC>  (937) 
(2S)-2-amino-2-cyclopentylacetic acid

>  <TYPE>  (937) 
Backbone

>  <CLASS>  (937) 
alpha

>  <ANALOG>  (937) 
X

>  <MOL_WT>  (937) 
143.186

>  <LOGP>  (937) 
0.5884999999999998

>  <TPSA>  (937) 
63.32000000000001

>  <POPULARITY>  (937) 
23.9

>  <PROTECTED>  (937) 
TRUE

>  <SMILES>  (937) 
N[C@@H](C1(CCCC1))C(=O)O

>  <INCHIKEY>  (937) 
XBPKRVHTESHFAA-LURJTMIESA-N

$$$$
aMePhe_2F
     RDKit          2D

 14 14  0  0  0  0  0  0  0  0999 V2000
   -0.6305    1.6391    0.0000 N   0  0  0  0  0  0  0  0  0  0  0  0
   -1.6946    0.5819    0.0000 C   0  0  0  0  0  0  0  0  0  0  0  0
   -2.7518    1.6460    0.0000 C   0  0  0  0  0  0  0  0  0  0  0  0
   -0.6374   -0.4822    0.0000 C   0  0  0  0  0  0  0  0  0  0  0  0
    0.8128   -0.0987    0.0000 C   0  0  0  0  0  0  0  0  0  0  0  0
    1.2057    1.3489    0.0000 C   0  0  0  0  0  0  0  0  0  0  0  0
    2.6559    1.7324    0.0000 C   0  0  0  0  0  0  0  0  0  0  0  0
    3.7131    0.6683    0.0000 C   0  0  0  0  0  0  0  0  0  0  0  0
    3.3201   -0.7793    0.0000 C   0  0  0  0  0  0  0  0  0  0  0  0
    1.8699   -1.1628    0.0000 C   0  0  0  0  0  0  0  0  0  0  0  0
    1.4770   -2.6105    0.0000 F   0  0  0  0  0  0  0  0  0  0  0  0
   -2.7587   -0.4753    0.0000 C   0  0  0  0  0  0  0  0  0  0  0  0
   -2.3752   -1.9254    0.0000 O   0  0  0  0  0  0  0  0  0  0  0  0
   -4.2063   -0.0823    0.0000 O   0  0  0  0  0  0  0  0  0  0  0  0
  1  2  1  0
  2  3  1  6
  2  4  1  0
  4  5  1  0
  5  6  2  0
  6  7  1  0
  7  8  2  0
  8  9  1  0
  9 10  2  0
 10 11  1  0
  2 12  1  0
 12 13  2  0
 12 14  1  0
 10  5  1  0
M  END
>  <rName>  (938) 
aMePhe_2F

>  <PQ_SYMBOL>  (938) 
aMePhe_2F

>  <FULL_NAME>  (938) 
alpha-Methyl-L-2-fluorophenylalanine

>  <IUPAC_CONDENSED>  (938) 
aMePhe(2-F)

>  <IUPAC>  (938) 
(2S)-2-amino-2-((2-fluorophenyl)methyl)propanoic acid

>  <TYPE>  (938) 
Backbone

>  <CLASS>  (938) 
alpha

>  <ANALOG>  (938) 
Phe

>  <MOL_WT>  (938) 
197.20899999999995

>  <LOGP>  (938) 
1.1702

>  <TPSA>  (938) 
63.32000000000001

>  <POPULARITY>  (938) 
21.2

>  <PROTECTED>  (938) 
TRUE

>  <SMILES>  (938) 
N[C@@](C)(Cc1(ccccc1F))C(=O)O

>  <INCHIKEY>  (938) 
MXECDVKIKUSSNC-JTQLQIEISA-N

$$$$
aMeTrp
     RDKit          2D

 16 17  0  0  0  0  0  0  0  0999 V2000
   -1.7481   -1.6804    0.0000 N   0  0  0  0  0  0  0  0  0  0  0  0
   -2.4966   -0.3805    0.0000 C   0  0  0  0  0  0  0  0  0  0  0  0
   -3.7965   -1.1291    0.0000 C   0  0  0  0  0  0  0  0  0  0  0  0
   -1.1967    0.3680    0.0000 C   0  0  0  0  0  0  0  0  0  0  0  0
    0.1015   -0.3835    0.0000 C   0  0  0  0  0  0  0  0  0  0  0  0
    0.2566   -1.8754    0.0000 C   0  0  0  0  0  0  0  0  0  0  0  0
    1.7234   -2.1889    0.0000 N   0  0  0  0  0  0  0  0  0  0  0  0
    2.4749   -0.8908    0.0000 C   0  0  0  0  0  0  0  0  0  0  0  0
    3.9425   -0.5805    0.0000 C   0  0  0  0  0  0  0  0  0  0  0  0
    4.4076    0.8455    0.0000 C   0  0  0  0  0  0  0  0  0  0  0  0
    3.4052    1.9614    0.0000 C   0  0  0  0  0  0  0  0  0  0  0  0
    1.9376    1.6512    0.0000 C   0  0  0  0  0  0  0  0  0  0  0  0
    1.4725    0.2251    0.0000 C   0  0  0  0  0  0  0  0  0  0  0  0
   -3.2451    0.9194    0.0000 C   0  0  0  0  0  0  0  0  0  0  0  0
   -4.7451    0.9211    0.0000 O   0  0  0  0  0  0  0  0  0  0  0  0
   -2.4937    2.2176    0.0000 O   0  0  0  0  0  0  0  0  0  0  0  0
  1  2  1  0
  2  3  1  1
  2  4  1  0
  4  5  1  0
  5  6  2  0
  6  7  1  0
  7  8  1  0
  8  9  2  0
  9 10  1  0
 10 11  2  0
 11 12  1  0
 12 13  2  0
  2 14  1  0
 14 15  2  0
 14 16  1  0
 13  5  1  0
 13  8  1  0
M  END
>  <rName>  (939) 
aMeTrp

>  <PQ_SYMBOL>  (939) 
aMeTrp

>  <FULL_NAME>  (939) 
Alpha-Methyl-L-tryptophan

>  <IUPAC_CONDENSED>  (939) 
aMeTrp

>  <IUPAC>  (939) 
(2S)-2-amino-2-((1H-indol-3-yl)methyl)propanoic acid

>  <TYPE>  (939) 
Backbone

>  <CLASS>  (939) 
alpha

>  <ANALOG>  (939) 
Trp

>  <MOL_WT>  (939) 
218.256

>  <LOGP>  (939) 
1.5123999999999997

>  <TPSA>  (939) 
79.11

>  <POPULARITY>  (939) 
7.5

>  <PROTECTED>  (939) 
TRUE

>  <SMILES>  (939) 
N[C@@](C)(Cc1(c[nH]c2(ccccc12)))C(=O)O

>  <INCHIKEY>  (939) 
ZTTWHZHBPDYSQB-LBPRGKRZSA-N

$$$$
hHis
     RDKit          2D

 12 12  0  0  0  0  0  0  0  0999 V2000
   -2.2999   -1.9362    0.0000 N   0  0  0  0  0  0  0  0  0  0  0  0
   -2.0700   -0.4539    0.0000 C   0  0  0  0  0  0  0  0  0  0  0  0
   -0.6714    0.0881    0.0000 C   0  0  0  0  0  0  0  0  0  0  0  0
    0.4974   -0.8521    0.0000 C   0  0  0  0  0  0  0  0  0  0  0  0
    1.8960   -0.3101    0.0000 C   0  0  0  0  0  0  0  0  0  0  0  0
    3.1566   -1.1230    0.0000 C   0  0  0  0  0  0  0  0  0  0  0  0
    4.3193   -0.1753    0.0000 N   0  0  0  0  0  0  0  0  0  0  0  0
    3.7773    1.2234    0.0000 C   0  0  0  0  0  0  0  0  0  0  0  0
    2.2796    1.1400    0.0000 N   0  0  0  0  0  0  0  0  0  0  0  0
   -3.2387    0.4863    0.0000 C   0  0  0  0  0  0  0  0  0  0  0  0
   -3.0088    1.9686    0.0000 O   0  0  0  0  0  0  0  0  0  0  0  0
   -4.6374   -0.0557    0.0000 O   0  0  0  0  0  0  0  0  0  0  0  0
  2  1  1  6
  2  3  1  0
  3  4  1  0
  4  5  1  0
  5  6  2  0
  6  7  1  0
  7  8  2  0
  8  9  1  0
  2 10  1  0
 10 11  2  0
 10 12  1  0
  9  5  1  0
M  END
>  <rName>  (940) 
hHis

>  <PQ_SYMBOL>  (940) 
hHis

>  <FULL_NAME>  (940) 
L-Homohistidine

>  <IUPAC_CONDENSED>  (940) 
hHis

>  <IUPAC>  (940) 
(2S)-2-amino-4-(1H-imidazol-5-yl)butanoic acid

>  <TYPE>  (940) 
Backbone

>  <CLASS>  (940) 
alpha

>  <ANALOG>  (940) 
His

>  <MOL_WT>  (940) 
169.184

>  <LOGP>  (940) 
-0.24580000000000074

>  <TPSA>  (940) 
92

>  <POPULARITY>  (940) 
2

>  <PROTECTED>  (940) 
FALSE

>  <SMILES>  (940) 
N[C@@H](CCc1(cnc[nH]1))C(=O)O

>  <INCHIKEY>  (940) 
MSECZMWQBBVGEN-LURJTMIESA-N

$$$$
bAla_3RCH2OH
     RDKit          2D

  8  7  0  0  0  0  0  0  0  0999 V2000
   -0.7931    1.4169    0.0000 N   0  0  0  0  0  0  0  0  0  0  0  0
   -0.8131   -0.0829    0.0000 C   0  0  0  0  0  0  0  0  0  0  0  0
   -2.1220   -0.8156    0.0000 C   0  0  0  0  0  0  0  0  0  0  0  0
   -3.4109   -0.0483    0.0000 O   0  0  0  0  0  0  0  0  0  0  0  0
    0.4759   -0.8502    0.0000 C   0  0  0  0  0  0  0  0  0  0  0  0
    1.7848   -0.1175    0.0000 C   0  0  0  0  0  0  0  0  0  0  0  0
    1.8048    1.3823    0.0000 O   0  0  0  0  0  0  0  0  0  0  0  0
    3.0737   -0.8848    0.0000 O   0  0  0  0  0  0  0  0  0  0  0  0
  2  1  1  1
  2  3  1  0
  3  4  1  0
  2  5  1  0
  5  6  1  0
  6  7  2  0
  6  8  1  0
M  END
>  <rName>  (941) 
bAla_3RCH2OH

>  <PQ_SYMBOL>  (941) 
bAla_3RCH2OH

>  <FULL_NAME>  (941) 
D-beta-Homoserine

>  <IUPAC_CONDENSED>  (941) 
bAla(3R-CH2OH)

>  <IUPAC>  (941) 
(3S)-3-amino-4-hydroxybutanoic acid

>  <TYPE>  (941) 
Backbone

>  <CLASS>  (941) 
beta

>  <ANALOG>  (941) 
Ser

>  <MOL_WT>  (941) 
119.11999999999999

>  <LOGP>  (941) 
-1.2192999999999998

>  <TPSA>  (941) 
83.55

>  <POPULARITY>  (941) 
14.7

>  <PROTECTED>  (941) 
TRUE

>  <SMILES>  (941) 
N[C@H](CO)CC(=O)O

>  <INCHIKEY>  (941) 
BUZICZZQJDLXJN-VKHMYHEASA-N

$$$$
Ac5c_34dehydro
     RDKit          2D

  9  9  0  0  0  0  0  0  0  0999 V2000
    0.7422   -1.6403    0.0000 N   0  0  0  0  0  0  0  0  0  0  0  0
   -0.0160   -0.3460    0.0000 C   0  0  0  0  0  0  0  0  0  0  0  0
   -0.4885    1.0777    0.0000 C   0  0  0  0  0  0  0  0  0  0  0  0
   -1.9885    1.0682    0.0000 C   0  0  0  0  0  0  0  0  0  0  0  0
   -2.4430   -0.3613    0.0000 C   0  0  0  0  0  0  0  0  0  0  0  0
   -1.2239   -1.2353    0.0000 C   0  0  0  0  0  0  0  0  0  0  0  0
    1.3504    0.2728    0.0000 C   0  0  0  0  0  0  0  0  0  0  0  0
    1.4978    1.7655    0.0000 O   0  0  0  0  0  0  0  0  0  0  0  0
    2.5695   -0.6013    0.0000 O   0  0  0  0  0  0  0  0  0  0  0  0
  1  2  1  0
  2  3  1  0
  3  4  1  0
  4  5  2  0
  5  6  1  0
  2  7  1  0
  7  8  2  0
  7  9  1  0
  6  2  1  0
M  END
>  <rName>  (942) 
Ac5c_34dehydro

>  <PQ_SYMBOL>  (942) 
Ac5c_34dehydro

>  <FULL_NAME>  (942) 
1-Aminocyclopent-3-enecarboxylic acid

>  <IUPAC_CONDENSED>  (942) 
Ac5c(3,4-dehydro)

>  <IUPAC>  (942) 
1-aminocyclopent-3-ene-1-carboxylic acid

>  <TYPE>  (942) 
Backbone

>  <CLASS>  (942) 
alpha

>  <ANALOG>  (942) 
X

>  <MOL_WT>  (942) 
127.14299999999999

>  <LOGP>  (942) 
0.1185

>  <TPSA>  (942) 
63.32000000000001

>  <POPULARITY>  (942) 
6.4

>  <PROTECTED>  (942) 
TRUE

>  <SMILES>  (942) 
NC1(CC=CC1)C(=O)O

>  <INCHIKEY>  (942) 
URVAZCZXGWHWCH-UHFFFAOYSA-N

$$$$
b2Ac5c
     RDKit          2D

 10 10  0  0  0  0  0  0  0  0999 V2000
   -2.2802   -1.0134    0.0000 N   0  0  0  0  0  0  0  0  0  0  0  0
   -0.8154   -1.3362    0.0000 C   0  0  0  0  0  0  0  0  0  0  0  0
    0.1967   -0.2291    0.0000 C   0  0  0  0  0  0  0  0  0  0  0  0
    1.1920   -1.3513    0.0000 C   0  0  0  0  0  0  0  0  0  0  0  0
    2.5668   -0.7515    0.0000 C   0  0  0  0  0  0  0  0  0  0  0  0
    2.4212    0.7414    0.0000 C   0  0  0  0  0  0  0  0  0  0  0  0
    0.9564    1.0643    0.0000 C   0  0  0  0  0  0  0  0  0  0  0  0
   -1.0102    0.6617    0.0000 C   0  0  0  0  0  0  0  0  0  0  0  0
   -2.3851    0.0618    0.0000 O   0  0  0  0  0  0  0  0  0  0  0  0
   -0.8422    2.1522    0.0000 O   0  0  0  0  0  0  0  0  0  0  0  0
  1  2  1  0
  2  3  1  0
  3  4  1  0
  4  5  1  0
  5  6  1  0
  6  7  1  0
  3  8  1  0
  8  9  2  0
  8 10  1  0
  7  3  1  0
M  END
>  <rName>  (943) 
b2Ac5c

>  <PQ_SYMBOL>  (943) 
b2Ac5c

>  <FULL_NAME>  (943) 
1-(Aminomethyl)cyclopentanecarboxylic acid

>  <IUPAC_CONDENSED>  (943) 
b2Ac5c

>  <IUPAC>  (943) 
1-(aminomethyl)cyclopentanecarboxylic acid

>  <TYPE>  (943) 
Backbone

>  <CLASS>  (943) 
beta

>  <ANALOG>  (943) 
X

>  <MOL_WT>  (943) 
143.186

>  <LOGP>  (943) 
0.5901000000000001

>  <TPSA>  (943) 
63.32000000000001

>  <POPULARITY>  (943) 
9.3

>  <PROTECTED>  (943) 
TRUE

>  <SMILES>  (943) 
NCC1(CCCC1)C(=O)O

>  <INCHIKEY>  (943) 
VZQSZPCSJJSCDJ-UHFFFAOYSA-N

$$$$
3-thia-Ac5c
     RDKit          2D

  9  9  0  0  0  0  0  0  0  0999 V2000
    0.7422   -1.6403    0.0000 N   0  0  0  0  0  0  0  0  0  0  0  0
   -0.0160   -0.3460    0.0000 C   0  0  0  0  0  0  0  0  0  0  0  0
   -0.4885    1.0777    0.0000 C   0  0  0  0  0  0  0  0  0  0  0  0
   -1.9885    1.0682    0.0000 C   0  0  0  0  0  0  0  0  0  0  0  0
   -2.4430   -0.3613    0.0000 S   0  0  0  0  0  0  0  0  0  0  0  0
   -1.2239   -1.2353    0.0000 C   0  0  0  0  0  0  0  0  0  0  0  0
    1.3504    0.2728    0.0000 C   0  0  0  0  0  0  0  0  0  0  0  0
    1.4978    1.7655    0.0000 O   0  0  0  0  0  0  0  0  0  0  0  0
    2.5695   -0.6013    0.0000 O   0  0  0  0  0  0  0  0  0  0  0  0
  1  2  1  0
  2  3  1  0
  3  4  1  0
  4  5  1  0
  5  6  1  0
  2  7  1  0
  7  8  2  0
  7  9  1  0
  6  2  1  0
M  END
>  <rName>  (944) 
3-thia-Ac5c

>  <PQ_SYMBOL>  (944) 
3-thia-Ac5c

>  <FULL_NAME>  (944) 
3-Aminotetrahydrothiophene-3-carboxylic acid

>  <IUPAC_CONDENSED>  (944) 
3-thia-Ac5c

>  <IUPAC>  (944) 
3-aminothiolane-3-carboxylic acid

>  <TYPE>  (944) 
Backbone

>  <CLASS>  (944) 
alpha

>  <ANALOG>  (944) 
Cys

>  <MOL_WT>  (944) 
147.199

>  <LOGP>  (944) 
-0.0946000000000003

>  <TPSA>  (944) 
63.32000000000001

>  <POPULARITY>  (944) 
8.6

>  <PROTECTED>  (944) 
TRUE

>  <SMILES>  (944) 
NC1(CCSC1)C(=O)O

>  <INCHIKEY>  (944) 
SAKWWHXZZFRWCN-UHFFFAOYSA-N

$$$$
3-oxa-Ac5c
     RDKit          2D

  9  9  0  0  0  0  0  0  0  0999 V2000
    0.7422   -1.6403    0.0000 N   0  0  0  0  0  0  0  0  0  0  0  0
   -0.0160   -0.3460    0.0000 C   0  0  0  0  0  0  0  0  0  0  0  0
   -0.4885    1.0777    0.0000 C   0  0  0  0  0  0  0  0  0  0  0  0
   -1.9885    1.0682    0.0000 C   0  0  0  0  0  0  0  0  0  0  0  0
   -2.4430   -0.3613    0.0000 O   0  0  0  0  0  0  0  0  0  0  0  0
   -1.2239   -1.2353    0.0000 C   0  0  0  0  0  0  0  0  0  0  0  0
    1.3504    0.2728    0.0000 C   0  0  0  0  0  0  0  0  0  0  0  0
    1.4978    1.7655    0.0000 O   0  0  0  0  0  0  0  0  0  0  0  0
    2.5695   -0.6013    0.0000 O   0  0  0  0  0  0  0  0  0  0  0  0
  1  2  1  0
  2  3  1  0
  3  4  1  0
  4  5  1  0
  5  6  1  0
  2  7  1  0
  7  8  2  0
  7  9  1  0
  6  2  1  0
M  END
>  <rName>  (945) 
3-oxa-Ac5c

>  <PQ_SYMBOL>  (945) 
3-oxa-Ac5c

>  <FULL_NAME>  (945) 
3-Aminotetrahydrofuran-3-carboxylic acid

>  <IUPAC_CONDENSED>  (945) 
3-oxa-Ac5c

>  <IUPAC>  (945) 
3-aminooxolane-3-carboxylic acid

>  <TYPE>  (945) 
Backbone

>  <CLASS>  (945) 
alpha

>  <ANALOG>  (945) 
Ser

>  <MOL_WT>  (945) 
131.131

>  <LOGP>  (945) 
-0.8112000000000004

>  <TPSA>  (945) 
72.55

>  <POPULARITY>  (945) 
7.7

>  <PROTECTED>  (945) 
TRUE

>  <SMILES>  (945) 
NC1(CCOC1)C(=O)O

>  <INCHIKEY>  (945) 
ATUWXXVBEAYCSQ-UHFFFAOYSA-N

$$$$
bAad_R
     RDKit          2D

 11 10  0  0  0  0  0  0  0  0999 V2000
    0.8169   -1.6084    0.0000 N   0  0  0  0  0  0  0  0  0  0  0  0
    0.6128   -0.1223    0.0000 C   0  0  0  0  0  0  0  0  0  0  0  0
   -0.7762    0.4440    0.0000 C   0  0  0  0  0  0  0  0  0  0  0  0
   -1.9611   -0.4758    0.0000 C   0  0  0  0  0  0  0  0  0  0  0  0
   -3.3501    0.0905    0.0000 C   0  0  0  0  0  0  0  0  0  0  0  0
   -3.5542    1.5766    0.0000 O   0  0  0  0  0  0  0  0  0  0  0  0
   -4.5350   -0.8292    0.0000 O   0  0  0  0  0  0  0  0  0  0  0  0
    1.7977    0.7974    0.0000 C   0  0  0  0  0  0  0  0  0  0  0  0
    3.1867    0.2312    0.0000 C   0  0  0  0  0  0  0  0  0  0  0  0
    3.3908   -1.2549    0.0000 O   0  0  0  0  0  0  0  0  0  0  0  0
    4.3717    1.1509    0.0000 O   0  0  0  0  0  0  0  0  0  0  0  0
  2  1  1  6
  2  3  1  0
  3  4  1  0
  4  5  1  0
  5  6  2  0
  5  7  1  0
  2  8  1  0
  8  9  1  0
  9 10  2  0
  9 11  1  0
M  END
>  <rName>  (946) 
bAad_R

>  <PQ_SYMBOL>  (946) 
bAad_R

>  <FULL_NAME>  (946) 
beta-D-homoglutamic acid

>  <IUPAC_CONDENSED>  (946) 
bAad(R)

>  <IUPAC>  (946) 
(3R)-3-aminohexanedioic acid

>  <TYPE>  (946) 
Backbone

>  <CLASS>  (946) 
beta

>  <ANALOG>  (946) 
Glu

>  <MOL_WT>  (946) 
161.15699999999998

>  <LOGP>  (946) 
-0.3468000000000003

>  <TPSA>  (946) 
100.62000000000002

>  <POPULARITY>  (946) 
6.6

>  <PROTECTED>  (946) 
TRUE

>  <SMILES>  (946) 
N[C@H](CCC(=O)O)CC(=O)O

>  <INCHIKEY>  (946) 
XABCFXXGZPWJQP-SCSAIBSYSA-N

$$$$
aMeAsn
     RDKit          2D

 10  9  0  0  0  0  0  0  0  0999 V2000
    0.5181    1.5297    0.0000 N   0  0  0  0  0  0  0  0  0  0  0  0
   -0.5678    0.4949    0.0000 C   0  0  0  0  0  0  0  0  0  0  0  0
   -1.6026    1.5808    0.0000 C   0  0  0  0  0  0  0  0  0  0  0  0
    0.4670   -0.5910    0.0000 C   0  0  0  0  0  0  0  0  0  0  0  0
    1.9248   -0.2377    0.0000 C   0  0  0  0  0  0  0  0  0  0  0  0
    2.3478    1.2014    0.0000 O   0  0  0  0  0  0  0  0  0  0  0  0
    2.9596   -1.3236    0.0000 N   0  0  0  0  0  0  0  0  0  0  0  0
   -1.6537   -0.5399    0.0000 C   0  0  0  0  0  0  0  0  0  0  0  0
   -3.0928   -0.1169    0.0000 O   0  0  0  0  0  0  0  0  0  0  0  0
   -1.3005   -1.9977    0.0000 O   0  0  0  0  0  0  0  0  0  0  0  0
  1  2  1  0
  2  3  1  6
  2  4  1  0
  4  5  1  0
  5  6  2  0
  5  7  1  0
  2  8  1  0
  8  9  2  0
  8 10  1  0
M  END
>  <rName>  (947) 
aMeAsn

>  <PQ_SYMBOL>  (947) 
aMeAsn

>  <FULL_NAME>  (947) 
alpha-methyl-L-asparagine

>  <IUPAC_CONDENSED>  (947) 
aMeAsn

>  <IUPAC>  (947) 
(2S)-2-amino-2-(2-amino-2-oxoethyl)propanoic acid

>  <TYPE>  (947) 
Backbone

>  <CLASS>  (947) 
alpha

>  <ANALOG>  (947) 
Asn

>  <MOL_WT>  (947) 
146.14600000000002

>  <LOGP>  (947) 
-1.336199999999999

>  <TPSA>  (947) 
106.41000000000001

>  <POPULARITY>  (947) 
10.7

>  <PROTECTED>  (947) 
TRUE

>  <SMILES>  (947) 
N[C@@](C)(CC(=O)N)C(=O)O

>  <INCHIKEY>  (947) 
XGKIMQBEEPDCSR-YFKPBYRVSA-N

$$$$
D-aMeAsn
     RDKit          2D

 10  9  0  0  0  0  0  0  0  0999 V2000
    0.5181    1.5297    0.0000 N   0  0  0  0  0  0  0  0  0  0  0  0
   -0.5678    0.4949    0.0000 C   0  0  0  0  0  0  0  0  0  0  0  0
   -1.6026    1.5808    0.0000 C   0  0  0  0  0  0  0  0  0  0  0  0
    0.4670   -0.5910    0.0000 C   0  0  0  0  0  0  0  0  0  0  0  0
    1.9248   -0.2377    0.0000 C   0  0  0  0  0  0  0  0  0  0  0  0
    2.3478    1.2014    0.0000 O   0  0  0  0  0  0  0  0  0  0  0  0
    2.9596   -1.3236    0.0000 N   0  0  0  0  0  0  0  0  0  0  0  0
   -1.6537   -0.5399    0.0000 C   0  0  0  0  0  0  0  0  0  0  0  0
   -3.0928   -0.1169    0.0000 O   0  0  0  0  0  0  0  0  0  0  0  0
   -1.3005   -1.9977    0.0000 O   0  0  0  0  0  0  0  0  0  0  0  0
  1  2  1  0
  2  3  1  1
  2  4  1  0
  4  5  1  0
  5  6  2  0
  5  7  1  0
  2  8  1  0
  8  9  2  0
  8 10  1  0
M  END
>  <rName>  (948) 
D-aMeAsn

>  <PQ_SYMBOL>  (948) 
D-aMeAsn

>  <FULL_NAME>  (948) 
alpha-methyl-D-asparagine

>  <IUPAC_CONDENSED>  (948) 
D-aMeAsn

>  <IUPAC>  (948) 
(2R)-2-amino-2-(2-amino-2-oxoethyl)propanoic acid

>  <TYPE>  (948) 
Backbone

>  <CLASS>  (948) 
alpha

>  <ANALOG>  (948) 
Asn

>  <MOL_WT>  (948) 
146.14600000000002

>  <LOGP>  (948) 
-1.336199999999999

>  <TPSA>  (948) 
106.41000000000001

>  <POPULARITY>  (948) 
10.5

>  <PROTECTED>  (948) 
TRUE

>  <SMILES>  (948) 
N[C@](C)(CC(=O)N)C(=O)O

>  <INCHIKEY>  (948) 
XGKIMQBEEPDCSR-RXMQYKEDSA-N

$$$$
aMeGln
     RDKit          2D

 11 10  0  0  0  0  0  0  0  0999 V2000
   -0.4806    1.9216    0.0000 N   0  0  0  0  0  0  0  0  0  0  0  0
   -1.2184    0.6156    0.0000 C   0  0  0  0  0  0  0  0  0  0  0  0
   -2.5244    1.3534    0.0000 C   0  0  0  0  0  0  0  0  0  0  0  0
    0.0876   -0.1222    0.0000 C   0  0  0  0  0  0  0  0  0  0  0  0
    1.3796    0.6400    0.0000 C   0  0  0  0  0  0  0  0  0  0  0  0
    2.6856   -0.0979    0.0000 C   0  0  0  0  0  0  0  0  0  0  0  0
    2.6996   -1.5978    0.0000 O   0  0  0  0  0  0  0  0  0  0  0  0
    3.9775    0.6643    0.0000 N   0  0  0  0  0  0  0  0  0  0  0  0
   -1.9562   -0.6904    0.0000 C   0  0  0  0  0  0  0  0  0  0  0  0
   -3.4561   -0.7044    0.0000 O   0  0  0  0  0  0  0  0  0  0  0  0
   -1.1941   -1.9823    0.0000 O   0  0  0  0  0  0  0  0  0  0  0  0
  1  2  1  0
  2  3  1  6
  2  4  1  0
  4  5  1  0
  5  6  1  0
  6  7  2  0
  6  8  1  0
  2  9  1  0
  9 10  2  0
  9 11  1  0
M  END
>  <rName>  (949) 
aMeGln

>  <PQ_SYMBOL>  (949) 
aMeGln

>  <FULL_NAME>  (949) 
alpha-methyl-L-glutamine

>  <IUPAC_CONDENSED>  (949) 
aMeGln

>  <IUPAC>  (949) 
(2S)-2-amino-4-carbamoyl-2-methylbutanoic acid

>  <TYPE>  (949) 
Backbone

>  <CLASS>  (949) 
alpha

>  <ANALOG>  (949) 
Gln

>  <MOL_WT>  (949) 
160.173

>  <LOGP>  (949) 
-0.9460999999999993

>  <TPSA>  (949) 
106.41000000000001

>  <POPULARITY>  (949) 
24.1

>  <PROTECTED>  (949) 
TRUE

>  <SMILES>  (949) 
N[C@@](C)(CCC(=O)N)C(=O)O

>  <INCHIKEY>  (949) 
YLTNWAQTQJRBKR-LURJTMIESA-N

$$$$
D-aMeGln
     RDKit          2D

 11 10  0  0  0  0  0  0  0  0999 V2000
   -0.4806    1.9216    0.0000 N   0  0  0  0  0  0  0  0  0  0  0  0
   -1.2184    0.6156    0.0000 C   0  0  0  0  0  0  0  0  0  0  0  0
   -2.5244    1.3534    0.0000 C   0  0  0  0  0  0  0  0  0  0  0  0
    0.0876   -0.1222    0.0000 C   0  0  0  0  0  0  0  0  0  0  0  0
    1.3796    0.6400    0.0000 C   0  0  0  0  0  0  0  0  0  0  0  0
    2.6856   -0.0979    0.0000 C   0  0  0  0  0  0  0  0  0  0  0  0
    2.6996   -1.5978    0.0000 O   0  0  0  0  0  0  0  0  0  0  0  0
    3.9775    0.6643    0.0000 N   0  0  0  0  0  0  0  0  0  0  0  0
   -1.9562   -0.6904    0.0000 C   0  0  0  0  0  0  0  0  0  0  0  0
   -3.4561   -0.7044    0.0000 O   0  0  0  0  0  0  0  0  0  0  0  0
   -1.1941   -1.9823    0.0000 O   0  0  0  0  0  0  0  0  0  0  0  0
  1  2  1  0
  2  3  1  1
  2  4  1  0
  4  5  1  0
  5  6  1  0
  6  7  2  0
  6  8  1  0
  2  9  1  0
  9 10  2  0
  9 11  1  0
M  END
>  <rName>  (950) 
D-aMeGln

>  <PQ_SYMBOL>  (950) 
D-aMeGln

>  <FULL_NAME>  (950) 
alpha-methyl-D-glutamine

>  <IUPAC_CONDENSED>  (950) 
D-aMeGln

>  <IUPAC>  (950) 
(2R)-2-amino-4-carbamoyl-2-methylbutanoic acid

>  <TYPE>  (950) 
Backbone

>  <CLASS>  (950) 
alpha

>  <ANALOG>  (950) 
Gln

>  <MOL_WT>  (950) 
160.173

>  <LOGP>  (950) 
-0.9460999999999993

>  <TPSA>  (950) 
106.41000000000001

>  <POPULARITY>  (950) 
10.9

>  <PROTECTED>  (950) 
TRUE

>  <SMILES>  (950) 
N[C@](C)(CCC(=O)N)C(=O)O

>  <INCHIKEY>  (950) 
YLTNWAQTQJRBKR-ZCFIWIBFSA-N

$$$$
aMePhg
     RDKit          2D

 12 12  0  0  0  0  0  0  0  0999 V2000
    0.8941   -2.1463    0.0000 N   0  0  0  0  0  0  0  0  0  0  0  0
    1.2478   -0.6886    0.0000 C   0  0  0  0  0  0  0  0  0  0  0  0
    2.7055   -1.0423    0.0000 C   0  0  0  0  0  0  0  0  0  0  0  0
   -0.2099   -0.3350    0.0000 C   0  0  0  0  0  0  0  0  0  0  0  0
   -1.2451   -1.4205    0.0000 C   0  0  0  0  0  0  0  0  0  0  0  0
   -2.7028   -1.0668    0.0000 C   0  0  0  0  0  0  0  0  0  0  0  0
   -3.1253    0.3724    0.0000 C   0  0  0  0  0  0  0  0  0  0  0  0
   -2.0902    1.4580    0.0000 C   0  0  0  0  0  0  0  0  0  0  0  0
   -0.6324    1.1043    0.0000 C   0  0  0  0  0  0  0  0  0  0  0  0
    1.6015    0.7691    0.0000 C   0  0  0  0  0  0  0  0  0  0  0  0
    0.5159    1.8042    0.0000 O   0  0  0  0  0  0  0  0  0  0  0  0
    3.0408    1.1916    0.0000 O   0  0  0  0  0  0  0  0  0  0  0  0
  1  2  1  0
  2  3  1  6
  2  4  1  0
  4  5  2  0
  5  6  1  0
  6  7  2  0
  7  8  1  0
  8  9  2  0
  2 10  1  0
 10 11  2  0
 10 12  1  0
  9  4  1  0
M  END
>  <rName>  (951) 
aMePhg

>  <PQ_SYMBOL>  (951) 
aMePhg

>  <FULL_NAME>  (951) 
alpha-methyl-L-Phenylglycine

>  <IUPAC_CONDENSED>  (951) 
aMePhg

>  <IUPAC>  (951) 
(2S)-2-amino-2-phenylpropanoic acid

>  <TYPE>  (951) 
Backbone

>  <CLASS>  (951) 
alpha

>  <ANALOG>  (951) 
X

>  <MOL_WT>  (951) 
165.19199999999995

>  <LOGP>  (951) 
0.9451

>  <TPSA>  (951) 
63.32000000000001

>  <POPULARITY>  (951) 
15.7

>  <PROTECTED>  (951) 
TRUE

>  <SMILES>  (951) 
N[C@@](C)(c1(ccccc1))C(=O)O

>  <INCHIKEY>  (951) 
HTCSFFGLRQDZDE-VIFPVBQESA-N

$$$$
D-aMePhg
     RDKit          2D

 12 12  0  0  0  0  0  0  0  0999 V2000
    0.8941   -2.1463    0.0000 N   0  0  0  0  0  0  0  0  0  0  0  0
    1.2478   -0.6886    0.0000 C   0  0  0  0  0  0  0  0  0  0  0  0
    2.7055   -1.0423    0.0000 C   0  0  0  0  0  0  0  0  0  0  0  0
   -0.2099   -0.3350    0.0000 C   0  0  0  0  0  0  0  0  0  0  0  0
   -1.2451   -1.4205    0.0000 C   0  0  0  0  0  0  0  0  0  0  0  0
   -2.7028   -1.0668    0.0000 C   0  0  0  0  0  0  0  0  0  0  0  0
   -3.1253    0.3724    0.0000 C   0  0  0  0  0  0  0  0  0  0  0  0
   -2.0902    1.4580    0.0000 C   0  0  0  0  0  0  0  0  0  0  0  0
   -0.6324    1.1043    0.0000 C   0  0  0  0  0  0  0  0  0  0  0  0
    1.6015    0.7691    0.0000 C   0  0  0  0  0  0  0  0  0  0  0  0
    0.5159    1.8042    0.0000 O   0  0  0  0  0  0  0  0  0  0  0  0
    3.0408    1.1916    0.0000 O   0  0  0  0  0  0  0  0  0  0  0  0
  1  2  1  0
  2  3  1  1
  2  4  1  0
  4  5  2  0
  5  6  1  0
  6  7  2  0
  7  8  1  0
  8  9  2  0
  2 10  1  0
 10 11  2  0
 10 12  1  0
  9  4  1  0
M  END
>  <rName>  (952) 
D-aMePhg

>  <PQ_SYMBOL>  (952) 
D-aMePhg

>  <FULL_NAME>  (952) 
alpha-methyl-D-Phenylglycine

>  <IUPAC_CONDENSED>  (952) 
D-aMePhg

>  <IUPAC>  (952) 
(2R)-2-amino-2-phenylpropanoic acid

>  <TYPE>  (952) 
Backbone

>  <CLASS>  (952) 
alpha

>  <ANALOG>  (952) 
X

>  <MOL_WT>  (952) 
165.19199999999995

>  <LOGP>  (952) 
0.9451

>  <TPSA>  (952) 
63.32000000000001

>  <POPULARITY>  (952) 
11.6

>  <PROTECTED>  (952) 
TRUE

>  <SMILES>  (952) 
N[C@](C)(c1(ccccc1))C(=O)O

>  <INCHIKEY>  (952) 
HTCSFFGLRQDZDE-SECBINFHSA-N

$$$$
Phg_4OMe
     RDKit          2D

 13 13  0  0  0  0  0  0  0  0999 V2000
   -2.4322   -2.0790    0.0000 N   0  0  0  0  0  0  0  0  0  0  0  0
   -1.9834   -0.6478    0.0000 C   0  0  0  0  0  0  0  0  0  0  0  0
   -0.5195   -0.3208    0.0000 C   0  0  0  0  0  0  0  0  0  0  0  0
   -0.0707    1.1105    0.0000 C   0  0  0  0  0  0  0  0  0  0  0  0
    1.3933    1.4374    0.0000 C   0  0  0  0  0  0  0  0  0  0  0  0
    2.4084    0.3331    0.0000 C   0  0  0  0  0  0  0  0  0  0  0  0
    3.8723    0.6601    0.0000 O   0  0  0  0  0  0  0  0  0  0  0  0
    4.8874   -0.4443    0.0000 C   0  0  0  0  0  0  0  0  0  0  0  0
    1.9596   -1.0982    0.0000 C   0  0  0  0  0  0  0  0  0  0  0  0
    0.4956   -1.4251    0.0000 C   0  0  0  0  0  0  0  0  0  0  0  0
   -2.9985    0.4566    0.0000 C   0  0  0  0  0  0  0  0  0  0  0  0
   -2.5497    1.8879    0.0000 O   0  0  0  0  0  0  0  0  0  0  0  0
   -4.4625    0.1296    0.0000 O   0  0  0  0  0  0  0  0  0  0  0  0
  2  1  1  6
  2  3  1  0
  3  4  1  0
  4  5  2  0
  5  6  1  0
  6  7  1  0
  7  8  1  0
  6  9  2  0
  9 10  1  0
  2 11  1  0
 11 12  2  0
 11 13  1  0
 10  3  2  0
M  END
>  <rName>  (953) 
Phg_4OMe

>  <PQ_SYMBOL>  (953) 
Phg_4OMe

>  <FULL_NAME>  (953) 
4-Methoxy-L-Phenylglycine

>  <IUPAC_CONDENSED>  (953) 
nTyr(Me)

>  <IUPAC>  (953) 
(2S)-2-amino-2-(4-methoxyphenyl)acetic acid

>  <TYPE>  (953) 
Backbone

>  <CLASS>  (953) 
alpha

>  <ANALOG>  (953) 
X

>  <MOL_WT>  (953) 
181.19099999999997

>  <LOGP>  (953) 
0.7796000000000001

>  <TPSA>  (953) 
72.55

>  <POPULARITY>  (953) 
10.1

>  <PROTECTED>  (953) 
TRUE

>  <SMILES>  (953) 
N[C@@H](c1(ccc(OC)cc1))C(=O)O

>  <INCHIKEY>  (953) 
GXUAKXUIILGDKW-QMMMGPOBSA-N

$$$$
b2Ac4c
     RDKit          2D

  9  9  0  0  0  0  0  0  0  0999 V2000
   -2.0396   -1.0995    0.0000 N   0  0  0  0  0  0  0  0  0  0  0  0
   -0.5668   -1.3834    0.0000 C   0  0  0  0  0  0  0  0  0  0  0  0
    0.4156   -0.2498    0.0000 C   0  0  0  0  0  0  0  0  0  0  0  0
    1.3979    0.8838    0.0000 C   0  0  0  0  0  0  0  0  0  0  0  0
    2.5315   -0.0986    0.0000 C   0  0  0  0  0  0  0  0  0  0  0  0
    1.5492   -1.2322    0.0000 C   0  0  0  0  0  0  0  0  0  0  0  0
   -0.7180    0.7325    0.0000 C   0  0  0  0  0  0  0  0  0  0  0  0
   -2.1355    0.2419    0.0000 O   0  0  0  0  0  0  0  0  0  0  0  0
   -0.4341    2.2054    0.0000 O   0  0  0  0  0  0  0  0  0  0  0  0
  1  2  1  0
  2  3  1  0
  3  4  1  0
  4  5  1  0
  5  6  1  0
  3  7  1  0
  7  8  2  0
  7  9  1  0
  6  3  1  0
M  END
>  <rName>  (954) 
b2Ac4c

>  <PQ_SYMBOL>  (954) 
b2Ac4c

>  <FULL_NAME>  (954) 
1-(Aminomethyl)cyclobutanecarboxylic acid

>  <IUPAC_CONDENSED>  (954) 
b2Ac4c

>  <IUPAC>  (954) 
1-(aminomethyl)cyclobutanecarboxylic acid

>  <TYPE>  (954) 
Backbone

>  <CLASS>  (954) 
beta

>  <ANALOG>  (954) 
X

>  <MOL_WT>  (954) 
129.159

>  <LOGP>  (954) 
0.20000000000000012

>  <TPSA>  (954) 
63.32000000000001

>  <POPULARITY>  (954) 
8.8

>  <PROTECTED>  (954) 
TRUE

>  <SMILES>  (954) 
NCC1(CCC1)C(=O)O

>  <INCHIKEY>  (954) 
BKYSXQMTMYOAGR-UHFFFAOYSA-N

$$$$
Q0002
     RDKit          2D

 60 59  0  0  0  0  0  0  0  0999 V2000
   26.7397    3.0566    0.0000 N   0  0  0  0  0  0  0  0  0  0  0  0
   26.2225    4.4646    0.0000 C   0  0  0  0  0  0  0  0  0  0  0  0
   24.7445    4.7208    0.0000 C   0  0  0  0  0  0  0  0  0  0  0  0
   23.7837    3.5689    0.0000 C   0  0  0  0  0  0  0  0  0  0  0  0
   22.3058    3.8250    0.0000 C   0  0  0  0  0  0  0  0  0  0  0  0
   21.3450    2.6731    0.0000 C   0  0  0  0  0  0  0  0  0  0  0  0
   19.8670    2.9293    0.0000 N   0  0  0  0  0  0  0  0  0  0  0  0
   18.9062    1.7774    0.0000 C   0  0  0  0  0  0  0  0  0  0  0  0
   19.4233    0.3693    0.0000 O   0  0  0  0  0  0  0  0  0  0  0  0
   17.4282    2.0335    0.0000 C   0  0  0  0  0  0  0  0  0  0  0  0
   16.4674    0.8816    0.0000 O   0  0  0  0  0  0  0  0  0  0  0  0
   14.9894    1.1377    0.0000 C   0  0  0  0  0  0  0  0  0  0  0  0
   14.0286   -0.0141    0.0000 C   0  0  0  0  0  0  0  0  0  0  0  0
   12.5507    0.2420    0.0000 O   0  0  0  0  0  0  0  0  0  0  0  0
   11.5898   -0.9099    0.0000 C   0  0  0  0  0  0  0  0  0  0  0  0
   10.1119   -0.6538    0.0000 C   0  0  0  0  0  0  0  0  0  0  0  0
    9.1511   -1.8056    0.0000 N   0  0  0  0  0  0  0  0  0  0  0  0
    7.6731   -1.5495    0.0000 C   0  0  0  0  0  0  0  0  0  0  0  0
    7.1559   -0.1415    0.0000 O   0  0  0  0  0  0  0  0  0  0  0  0
    6.7123   -2.7014    0.0000 C   0  0  0  0  0  0  0  0  0  0  0  0
    5.2343   -2.4453    0.0000 O   0  0  0  0  0  0  0  0  0  0  0  0
    4.2735   -3.5972    0.0000 C   0  0  0  0  0  0  0  0  0  0  0  0
    2.7956   -3.3410    0.0000 C   0  0  0  0  0  0  0  0  0  0  0  0
    1.8347   -4.4929    0.0000 O   0  0  0  0  0  0  0  0  0  0  0  0
    0.3568   -4.2368    0.0000 C   0  0  0  0  0  0  0  0  0  0  0  0
   -0.6040   -5.3887    0.0000 C   0  0  0  0  0  0  0  0  0  0  0  0
   -2.0820   -5.1325    0.0000 N   0  0  0  0  0  0  0  0  0  0  0  0
   -3.0428   -6.2844    0.0000 C   0  0  0  0  0  0  0  0  0  0  0  0
   -2.5256   -7.6924    0.0000 O   0  0  0  0  0  0  0  0  0  0  0  0
   -4.5208   -6.0283    0.0000 C   0  0  0  0  0  0  0  0  0  0  0  0
   -5.4816   -7.1802    0.0000 C   0  0  0  0  0  0  0  0  0  0  0  0
   -6.9596   -6.9240    0.0000 C   0  0  0  0  0  0  0  0  0  0  0  0
   -7.4767   -5.5160    0.0000 N   0  0  0  0  0  0  0  0  0  0  0  0
   -8.9547   -5.2599    0.0000 C   0  0  0  0  0  0  0  0  0  0  0  0
   -9.9155   -6.4118    0.0000 O   0  0  0  0  0  0  0  0  0  0  0  0
   -9.4718   -3.8518    0.0000 C   0  0  0  0  0  0  0  0  0  0  0  0
  -10.9498   -3.5957    0.0000 C   0  0  0  0  0  0  0  0  0  0  0  0
  -11.4670   -2.1877    0.0000 C   0  0  0  0  0  0  0  0  0  0  0  0
  -12.9449   -1.9315    0.0000 C   0  0  0  0  0  0  0  0  0  0  0  0
  -13.4621   -0.5235    0.0000 C   0  0  0  0  0  0  0  0  0  0  0  0
  -14.9401   -0.2674    0.0000 C   0  0  0  0  0  0  0  0  0  0  0  0
  -15.4572    1.1407    0.0000 C   0  0  0  0  0  0  0  0  0  0  0  0
  -16.9352    1.3968    0.0000 C   0  0  0  0  0  0  0  0  0  0  0  0
  -17.4524    2.8048    0.0000 C   0  0  0  0  0  0  0  0  0  0  0  0
  -18.9303    3.0610    0.0000 C   0  0  0  0  0  0  0  0  0  0  0  0
  -19.4475    4.4690    0.0000 C   0  0  0  0  0  0  0  0  0  0  0  0
  -20.9255    4.7251    0.0000 C   0  0  0  0  0  0  0  0  0  0  0  0
  -21.4426    6.1332    0.0000 C   0  0  0  0  0  0  0  0  0  0  0  0
  -22.9206    6.3893    0.0000 C   0  0  0  0  0  0  0  0  0  0  0  0
  -23.4378    7.7973    0.0000 C   0  0  0  0  0  0  0  0  0  0  0  0
  -24.9157    8.0535    0.0000 C   0  0  0  0  0  0  0  0  0  0  0  0
  -25.4329    9.4615    0.0000 C   0  0  0  0  0  0  0  0  0  0  0  0
  -24.4721   10.6134    0.0000 O   0  0  0  0  0  0  0  0  0  0  0  0
  -26.9109    9.7176    0.0000 O   0  0  0  0  0  0  0  0  0  0  0  0
   -7.9204   -8.0759    0.0000 C   0  0  0  0  0  0  0  0  0  0  0  0
   -7.4032   -9.4839    0.0000 O   0  0  0  0  0  0  0  0  0  0  0  0
   -9.3983   -7.8198    0.0000 O   0  0  0  0  0  0  0  0  0  0  0  0
   27.1833    5.6165    0.0000 C   0  0  0  0  0  0  0  0  0  0  0  0
   26.6661    7.0245    0.0000 O   0  0  0  0  0  0  0  0  0  0  0  0
   28.6613    5.3604    0.0000 O   0  0  0  0  0  0  0  0  0  0  0  0
  2  1  1  1
  2  3  1  0
  3  4  1  0
  4  5  1  0
  5  6  1  0
  6  7  1  0
  7  8  1  0
  8  9  2  0
  8 10  1  0
 10 11  1  0
 11 12  1  0
 12 13  1  0
 13 14  1  0
 14 15  1  0
 15 16  1  0
 16 17  1  0
 17 18  1  0
 18 19  2  0
 18 20  1  0
 20 21  1  0
 21 22  1  0
 22 23  1  0
 23 24  1  0
 24 25  1  0
 25 26  1  0
 26 27  1  0
 27 28  1  0
 28 29  2  0
 28 30  1  0
 30 31  1  0
 32 31  1  6
 32 33  1  0
 33 34  1  0
 34 35  2  0
 34 36  1  0
 36 37  1  0
 37 38  1  0
 38 39  1  0
 39 40  1  0
 40 41  1  0
 41 42  1  0
 42 43  1  0
 43 44  1  0
 44 45  1  0
 45 46  1  0
 46 47  1  0
 47 48  1  0
 48 49  1  0
 49 50  1  0
 50 51  1  0
 51 52  1  0
 52 53  2  0
 52 54  1  0
 32 55  1  0
 55 56  2  0
 55 57  1  0
  2 58  1  0
 58 59  2  0
 58 60  1  0
M  END
>  <rName>  (955) 
Q0002

>  <PQ_SYMBOL>  (955) 
Q0002

>  <FULL_NAME>  (955) 
L-Lys(AEEAc-AEEAc-L-γ-Glu-C18di acid)

>  <IUPAC_CONDENSED>  (955) 


>  <IUPAC>  (955) 
17-(((2R)-5-((2-(2-(2-((2-(2-(2-(((5S)-5-amino-6-hydroxy-6-oxohexyl)amino)-2-oxoethoxy)ethoxy)ethyl)amino)-2-oxoethoxy)ethoxy)ethyl)amino)-1-hydroxy-1,5-dioxopentan-2-yl)carbamoyl)heptadecanoic acid

>  <TYPE>  (955) 
Backbone

>  <CLASS>  (955) 
alpha

>  <ANALOG>  (955) 
Gln

>  <MOL_WT>  (955) 
862.0719999999994

>  <LOGP>  (955) 
2.6594000000000095

>  <TPSA>  (955) 
291.24

>  <POPULARITY>  (955) 
0.6

>  <PROTECTED>  (955) 
FALSE

>  <SMILES>  (955) 
N[C@@H](CCCCNC(=O)COCCOCCNC(=O)COCCOCCNC(=O)CC[C@@H](NC(=O)CCCCCCCCCCCCCCCCC(=O)O)C(=O)O)C(=O)O

>  <INCHIKEY>  (955) 
QDUKXQMKBZEBHC-SZAHLOSFSA-N

$$$$
Oic_3axi_7axi
     RDKit          2D

 12 13  0  0  0  0  0  0  0  0999 V2000
   -0.5689    1.2135    0.0000 N   0  0  0  0  0  0  0  0  0  0  0  0
   -1.4506   -0.0000    0.0000 C   0  0  0  0  0  0  0  0  0  0  0  0
   -0.5689   -1.2135    0.0000 C   0  0  0  0  0  0  0  0  0  0  0  0
    0.8577   -0.7500    0.0000 C   0  0  0  0  0  0  0  0  0  0  0  0
    2.1567   -1.5000    0.0000 C   0  0  0  0  0  0  0  0  0  0  0  0
    3.4557   -0.7500    0.0000 C   0  0  0  0  0  0  0  0  0  0  0  0
    3.4557    0.7500    0.0000 C   0  0  0  0  0  0  0  0  0  0  0  0
    2.1567    1.5000    0.0000 C   0  0  0  0  0  0  0  0  0  0  0  0
    0.8577    0.7500    0.0000 C   0  0  0  0  0  0  0  0  0  0  0  0
   -2.9506   -0.0000    0.0000 C   0  0  0  0  0  0  0  0  0  0  0  0
   -3.7006   -1.2990    0.0000 O   0  0  0  0  0  0  0  0  0  0  0  0
   -3.7006    1.2990    0.0000 O   0  0  0  0  0  0  0  0  0  0  0  0
  1  2  1  0
  2  3  1  0
  3  4  1  0
  4  5  1  0
  5  6  1  0
  6  7  1  0
  7  8  1  0
  8  9  1  0
  2 10  1  1
 10 11  2  0
 10 12  1  0
  9  4  1  0
  9  1  1  0
M  END
>  <rName>  (956) 
Oic_3axi_7axi

>  <PQ_SYMBOL>  (956) 
Oic_3axi_7axi

>  <FULL_NAME>  (956) 
(2S)-Octahydroindole-2-carboxylic acid

>  <IUPAC_CONDENSED>  (956) 
Oic(3axi,7axi)

>  <IUPAC>  (956) 
(8S)-7-azabicyclo[4.3.0]nonane-8-carboxylic acid

>  <TYPE>  (956) 
Backbone

>  <CLASS>  (956) 
alpha

>  <ANALOG>  (956) 
Pro

>  <MOL_WT>  (956) 
169.22400000000002

>  <LOGP>  (956) 
0.9917

>  <TPSA>  (956) 
49.33

>  <POPULARITY>  (956) 
7.6

>  <PROTECTED>  (956) 
FALSE

>  <SMILES>  (956) 
N2[C@@H](CC1(CCCCC12))C(=O)O

>  <INCHIKEY>  (956) 
CQYBNXGHMBNGCG-RRQHEKLDSA-N

$$$$
Phe_Bn
     RDKit          2D

 19 20  0  0  0  0  0  0  0  0999 V2000
   -4.0697    1.5683    0.0000 N   0  0  0  0  0  0  0  0  0  0  0  0
   -4.2646    0.0811    0.0000 C   0  0  0  0  0  0  0  0  0  0  0  0
   -3.0740   -0.8314    0.0000 C   0  0  0  0  0  0  0  0  0  0  0  0
   -1.6885   -0.2565    0.0000 C   0  0  0  0  0  0  0  0  0  0  0  0
   -1.4936    1.2308    0.0000 C   0  0  0  0  0  0  0  0  0  0  0  0
   -0.1082    1.8057    0.0000 C   0  0  0  0  0  0  0  0  0  0  0  0
    1.0824    0.8933    0.0000 C   0  0  0  0  0  0  0  0  0  0  0  0
    0.8875   -0.5940    0.0000 C   0  0  0  0  0  0  0  0  0  0  0  0
   -0.4979   -1.1689    0.0000 C   0  0  0  0  0  0  0  0  0  0  0  0
    2.4679    1.4681    0.0000 C   0  0  0  0  0  0  0  0  0  0  0  0
    3.6585    0.5557    0.0000 C   0  0  0  0  0  0  0  0  0  0  0  0
    3.4636   -0.9316    0.0000 C   0  0  0  0  0  0  0  0  0  0  0  0
    4.6542   -1.8440    0.0000 C   0  0  0  0  0  0  0  0  0  0  0  0
    6.0396   -1.2691    0.0000 C   0  0  0  0  0  0  0  0  0  0  0  0
    6.2345    0.2182    0.0000 C   0  0  0  0  0  0  0  0  0  0  0  0
    5.0439    1.1306    0.0000 C   0  0  0  0  0  0  0  0  0  0  0  0
   -5.6500   -0.4938    0.0000 C   0  0  0  0  0  0  0  0  0  0  0  0
   -5.8449   -1.9811    0.0000 O   0  0  0  0  0  0  0  0  0  0  0  0
   -6.8406    0.4186    0.0000 O   0  0  0  0  0  0  0  0  0  0  0  0
  2  1  1  1
  2  3  1  0
  3  4  1  0
  4  5  1  0
  5  6  2  0
  6  7  1  0
  7  8  2  0
  8  9  1  0
  7 10  1  0
 10 11  1  0
 11 12  2  0
 12 13  1  0
 13 14  2  0
 14 15  1  0
 15 16  2  0
  2 17  1  0
 17 18  2  0
 17 19  1  0
  9  4  2  0
 16 11  1  0
M  END
>  <rName>  (957) 
Phe_Bn

>  <PQ_SYMBOL>  (957) 
Phe_Bn

>  <FULL_NAME>  (957) 
4-Benzyl-L-phenylalanine

>  <IUPAC_CONDENSED>  (957) 
Phe(Bn)

>  <IUPAC>  (957) 
(2S)-2-amino-3-(4-benzylphenyl)propanoic acid

>  <TYPE>  (957) 
Backbone

>  <CLASS>  (957) 
alpha

>  <ANALOG>  (957) 
Phe

>  <MOL_WT>  (957) 
255.31699999999998

>  <LOGP>  (957) 
2.2318000000000002

>  <TPSA>  (957) 
63.32000000000001

>  <POPULARITY>  (957) 
11.7

>  <PROTECTED>  (957) 
TRUE

>  <SMILES>  (957) 
N[C@@H](Cc1(ccc(cc1)Cc2(ccccc2)))C(=O)O

>  <INCHIKEY>  (957) 
FLAYVDDDWHBOIP-HNNXBMFYSA-N

$$$$
D-Hyp
     RDKit          2D

  9  9  0  0  0  0  0  0  0  0999 V2000
   -0.1792   -1.4541    0.0000 N   0  0  0  0  0  0  0  0  0  0  0  0
    0.4598   -0.0969    0.0000 C   0  0  0  0  0  0  0  0  0  0  0  0
   -0.6334    0.9301    0.0000 C   0  0  0  0  0  0  0  0  0  0  0  0
   -1.9481    0.2077    0.0000 C   0  0  0  0  0  0  0  0  0  0  0  0
   -3.3052    0.8467    0.0000 O   0  0  0  0  0  0  0  0  0  0  0  0
   -1.6673   -1.2657    0.0000 C   0  0  0  0  0  0  0  0  0  0  0  0
    1.9333    0.1838    0.0000 C   0  0  0  0  0  0  0  0  0  0  0  0
    2.4269    1.6003    0.0000 O   0  0  0  0  0  0  0  0  0  0  0  0
    2.9132   -0.9519    0.0000 O   0  0  0  0  0  0  0  0  0  0  0  0
  1  2  1  0
  2  3  1  0
  3  4  1  0
  4  5  1  1
  4  6  1  0
  2  7  1  6
  7  8  2  0
  7  9  1  0
  6  1  1  0
M  END
>  <rName>  (958) 
D-Hyp

>  <PQ_SYMBOL>  (958) 
D-Hyp

>  <FULL_NAME>  (958) 
trans-4-Hydroxy-D-proline

>  <IUPAC_CONDENSED>  (958) 
D-Hyp

>  <IUPAC>  (958) 
(2R,4S)-4-hydroxypyrrolidine-2-carboxylic acid

>  <TYPE>  (958) 
Backbone

>  <CLASS>  (958) 
alpha

>  <ANALOG>  (958) 
Pro

>  <MOL_WT>  (958) 
131.131

>  <LOGP>  (958) 
-1.2062000000000004

>  <TPSA>  (958) 
69.56

>  <POPULARITY>  (958) 
21.9

>  <PROTECTED>  (958) 
TRUE

>  <SMILES>  (958) 
N1[C@H](C[C@H](O)C1)C(=O)O

>  <INCHIKEY>  (958) 
PMMYEEVYMWASQN-IUYQGCFVSA-N

$$$$
aHyp
     RDKit          2D

  9  9  0  0  0  0  0  0  0  0999 V2000
   -0.1792   -1.4541    0.0000 N   0  0  0  0  0  0  0  0  0  0  0  0
    0.4598   -0.0969    0.0000 C   0  0  0  0  0  0  0  0  0  0  0  0
   -0.6334    0.9301    0.0000 C   0  0  0  0  0  0  0  0  0  0  0  0
   -1.9481    0.2077    0.0000 C   0  0  0  0  0  0  0  0  0  0  0  0
   -3.3052    0.8467    0.0000 O   0  0  0  0  0  0  0  0  0  0  0  0
   -1.6673   -1.2657    0.0000 C   0  0  0  0  0  0  0  0  0  0  0  0
    1.9333    0.1838    0.0000 C   0  0  0  0  0  0  0  0  0  0  0  0
    2.4269    1.6003    0.0000 O   0  0  0  0  0  0  0  0  0  0  0  0
    2.9132   -0.9519    0.0000 O   0  0  0  0  0  0  0  0  0  0  0  0
  1  2  1  0
  2  3  1  0
  3  4  1  0
  4  5  1  1
  4  6  1  0
  2  7  1  1
  7  8  2  0
  7  9  1  0
  6  1  1  0
M  END
>  <rName>  (959) 
aHyp

>  <PQ_SYMBOL>  (959) 
aHyp

>  <FULL_NAME>  (959) 
cis-4-Hydroxy-L-proline

>  <IUPAC_CONDENSED>  (959) 
aHyp

>  <IUPAC>  (959) 
(2S,4S)-4-hydroxypyrrolidine-2-carboxylic acid

>  <TYPE>  (959) 
Backbone

>  <CLASS>  (959) 
alpha

>  <ANALOG>  (959) 
Pro

>  <MOL_WT>  (959) 
131.131

>  <LOGP>  (959) 
-1.2062000000000004

>  <TPSA>  (959) 
69.56

>  <POPULARITY>  (959) 
28.9

>  <PROTECTED>  (959) 
TRUE

>  <SMILES>  (959) 
N1[C@@H](C[C@H](O)C1)C(=O)O

>  <INCHIKEY>  (959) 
PMMYEEVYMWASQN-IMJSIDKUSA-N

$$$$
D-aHyp
     RDKit          2D

  9  9  0  0  0  0  0  0  0  0999 V2000
   -0.1792   -1.4541    0.0000 N   0  0  0  0  0  0  0  0  0  0  0  0
    0.4598   -0.0969    0.0000 C   0  0  0  0  0  0  0  0  0  0  0  0
   -0.6334    0.9301    0.0000 C   0  0  0  0  0  0  0  0  0  0  0  0
   -1.9481    0.2077    0.0000 C   0  0  0  0  0  0  0  0  0  0  0  0
   -3.3052    0.8467    0.0000 O   0  0  0  0  0  0  0  0  0  0  0  0
   -1.6673   -1.2657    0.0000 C   0  0  0  0  0  0  0  0  0  0  0  0
    1.9333    0.1838    0.0000 C   0  0  0  0  0  0  0  0  0  0  0  0
    2.4269    1.6003    0.0000 O   0  0  0  0  0  0  0  0  0  0  0  0
    2.9132   -0.9519    0.0000 O   0  0  0  0  0  0  0  0  0  0  0  0
  1  2  1  0
  2  3  1  0
  3  4  1  0
  4  5  1  6
  4  6  1  0
  2  7  1  6
  7  8  2  0
  7  9  1  0
  6  1  1  0
M  END
>  <rName>  (960) 
D-aHyp

>  <PQ_SYMBOL>  (960) 
D-aHyp

>  <FULL_NAME>  (960) 
cis-4-Hydroxy-D-proline

>  <IUPAC_CONDENSED>  (960) 
D-aHyp

>  <IUPAC>  (960) 
(2R,4R)-4-hydroxypyrrolidine-2-carboxylic acid

>  <TYPE>  (960) 
Backbone

>  <CLASS>  (960) 
alpha

>  <ANALOG>  (960) 
Pro

>  <MOL_WT>  (960) 
131.131

>  <LOGP>  (960) 
-1.2062000000000004

>  <TPSA>  (960) 
69.56

>  <POPULARITY>  (960) 
18.6

>  <PROTECTED>  (960) 
TRUE

>  <SMILES>  (960) 
N1[C@H](C[C@@H](O)C1)C(=O)O

>  <INCHIKEY>  (960) 
PMMYEEVYMWASQN-QWWZWVQMSA-N

$$$$
D-Thr_Bn
     RDKit          2D

 15 15  0  0  0  0  0  0  0  0999 V2000
   -1.6242   -1.6376    0.0000 N   0  0  0  0  0  0  0  0  0  0  0  0
   -2.4349   -0.3756    0.0000 C   0  0  0  0  0  0  0  0  0  0  0  0
   -1.7473    0.9575    0.0000 C   0  0  0  0  0  0  0  0  0  0  0  0
   -0.2490    1.0286    0.0000 O   0  0  0  0  0  0  0  0  0  0  0  0
    0.5617   -0.2335    0.0000 C   0  0  0  0  0  0  0  0  0  0  0  0
    2.0600   -0.1624    0.0000 C   0  0  0  0  0  0  0  0  0  0  0  0
    2.7476    1.1707    0.0000 C   0  0  0  0  0  0  0  0  0  0  0  0
    4.2459    1.2418    0.0000 C   0  0  0  0  0  0  0  0  0  0  0  0
    5.0566   -0.0202    0.0000 C   0  0  0  0  0  0  0  0  0  0  0  0
    4.3690   -1.3533    0.0000 C   0  0  0  0  0  0  0  0  0  0  0  0
    2.8707   -1.4244    0.0000 C   0  0  0  0  0  0  0  0  0  0  0  0
   -2.5580    2.2196    0.0000 C   0  0  0  0  0  0  0  0  0  0  0  0
   -3.9333   -0.4467    0.0000 C   0  0  0  0  0  0  0  0  0  0  0  0
   -4.7440    0.8154    0.0000 O   0  0  0  0  0  0  0  0  0  0  0  0
   -4.6209   -1.7798    0.0000 O   0  0  0  0  0  0  0  0  0  0  0  0
  2  1  1  1
  2  3  1  0
  3  4  1  0
  4  5  1  0
  5  6  1  0
  6  7  2  0
  7  8  1  0
  8  9  2  0
  9 10  1  0
 10 11  2  0
  3 12  1  6
  2 13  1  0
 13 14  2  0
 13 15  1  0
 11  6  1  0
M  END
>  <rName>  (961) 
D-Thr_Bn

>  <PQ_SYMBOL>  (961) 
D-Thr_Bn

>  <FULL_NAME>  (961) 
O3-benzyl-D-threonine

>  <IUPAC_CONDENSED>  (961) 
D-Thr(Bn)

>  <IUPAC>  (961) 
(2R,3S)-2-amino-3-benzyloxybutanoic acid

>  <TYPE>  (961) 
Backbone

>  <CLASS>  (961) 
alpha

>  <ANALOG>  (961) 
Thr

>  <MOL_WT>  (961) 
209.24499999999998

>  <LOGP>  (961) 
1.0035999999999996

>  <TPSA>  (961) 
72.55

>  <POPULARITY>  (961) 
10.9

>  <PROTECTED>  (961) 
TRUE

>  <SMILES>  (961) 
N[C@H]([C@@H](OCc1(ccccc1))C)C(=O)O

>  <INCHIKEY>  (961) 
ONOURAAVVKGJNM-WCBMZHEXSA-N

$$$$
Apm
     RDKit          2D

 12 11  0  0  0  0  0  0  0  0999 V2000
    2.4617   -1.9005    0.0000 N   0  0  0  0  0  0  0  0  0  0  0  0
    2.4001   -0.4018    0.0000 C   0  0  0  0  0  0  0  0  0  0  0  0
    1.0713    0.2943    0.0000 C   0  0  0  0  0  0  0  0  0  0  0  0
   -0.1958   -0.5085    0.0000 C   0  0  0  0  0  0  0  0  0  0  0  0
   -1.5245    0.1875    0.0000 C   0  0  0  0  0  0  0  0  0  0  0  0
   -2.7917   -0.6152    0.0000 C   0  0  0  0  0  0  0  0  0  0  0  0
   -4.1204    0.0808    0.0000 C   0  0  0  0  0  0  0  0  0  0  0  0
   -4.1820    1.5796    0.0000 O   0  0  0  0  0  0  0  0  0  0  0  0
   -5.3876   -0.7219    0.0000 O   0  0  0  0  0  0  0  0  0  0  0  0
    3.6672    0.4010    0.0000 C   0  0  0  0  0  0  0  0  0  0  0  0
    3.6056    1.8997    0.0000 O   0  0  0  0  0  0  0  0  0  0  0  0
    4.9960   -0.2950    0.0000 O   0  0  0  0  0  0  0  0  0  0  0  0
  2  1  1  1
  2  3  1  0
  3  4  1  0
  4  5  1  0
  5  6  1  0
  6  7  1  0
  7  8  2  0
  7  9  1  0
  2 10  1  0
 10 11  2  0
 10 12  1  0
M  END
>  <rName>  (962) 
Apm

>  <PQ_SYMBOL>  (962) 
Apm

>  <FULL_NAME>  (962) 
L-Aminopimelic acid, 6-carboxy-L-norleucine

>  <IUPAC_CONDENSED>  (962) 
Apm

>  <IUPAC>  (962) 
(2S)-2-aminoheptanedioic acid

>  <TYPE>  (962) 
Backbone

>  <CLASS>  (962) 
alpha

>  <ANALOG>  (962) 
X

>  <MOL_WT>  (962) 
175.184

>  <LOGP>  (962) 
0.04329999999999956

>  <TPSA>  (962) 
100.62000000000002

>  <POPULARITY>  (962) 
12.1

>  <PROTECTED>  (962) 
TRUE

>  <SMILES>  (962) 
N[C@@H](CCCCC(=O)O)C(=O)O

>  <INCHIKEY>  (962) 
JUQLUIFNNFIIKC-YFKPBYRVSA-N

$$$$
D-His_1Bn
     RDKit          2D

 18 19  0  0  0  0  0  0  0  0999 V2000
   -3.5350    1.7533    0.0000 N   0  0  0  0  0  0  0  0  0  0  0  0
   -4.0246    0.3354    0.0000 C   0  0  0  0  0  0  0  0  0  0  0  0
   -3.0415   -0.7975    0.0000 C   0  0  0  0  0  0  0  0  0  0  0  0
   -1.5688   -0.5126    0.0000 C   0  0  0  0  0  0  0  0  0  0  0  0
   -0.4726   -1.5365    0.0000 C   0  0  0  0  0  0  0  0  0  0  0  0
    0.8399   -0.8104    0.0000 N   0  0  0  0  0  0  0  0  0  0  0  0
    0.5550    0.6623    0.0000 C   0  0  0  0  0  0  0  0  0  0  0  0
   -0.9337    0.8464    0.0000 N   0  0  0  0  0  0  0  0  0  0  0  0
    2.1989   -1.4455    0.0000 C   0  0  0  0  0  0  0  0  0  0  0  0
    3.4283   -0.5862    0.0000 C   0  0  0  0  0  0  0  0  0  0  0  0
    4.7872   -1.2213    0.0000 C   0  0  0  0  0  0  0  0  0  0  0  0
    6.0167   -0.3620    0.0000 C   0  0  0  0  0  0  0  0  0  0  0  0
    5.8873    1.1324    0.0000 C   0  0  0  0  0  0  0  0  0  0  0  0
    4.5283    1.7675    0.0000 C   0  0  0  0  0  0  0  0  0  0  0  0
    3.2989    0.9082    0.0000 C   0  0  0  0  0  0  0  0  0  0  0  0
   -5.4973    0.0504    0.0000 C   0  0  0  0  0  0  0  0  0  0  0  0
   -5.9868   -1.3674    0.0000 O   0  0  0  0  0  0  0  0  0  0  0  0
   -6.4804    1.1834    0.0000 O   0  0  0  0  0  0  0  0  0  0  0  0
  2  1  1  6
  2  3  1  0
  3  4  1  0
  4  5  2  0
  5  6  1  0
  6  7  1  0
  7  8  2  0
  6  9  1  0
  9 10  1  0
 10 11  2  0
 11 12  1  0
 12 13  2  0
 13 14  1  0
 14 15  2  0
  2 16  1  0
 16 17  2  0
 16 18  1  0
  8  4  1  0
 15 10  1  0
M  END
>  <rName>  (963) 
D-His_1Bn

>  <PQ_SYMBOL>  (963) 
D-His_1Bn

>  <FULL_NAME>  (963) 
(2R)-2-amino-3-(1-benzylimidazol-4-yl)propanoic acid

>  <IUPAC_CONDENSED>  (963) 
D-His(1-Bn)

>  <IUPAC>  (963) 
(2R)-2-amino-3-(1-benzyl-1H-imidazol-4-yl)propanoic acid

>  <TYPE>  (963) 
Backbone

>  <CLASS>  (963) 
alpha

>  <ANALOG>  (963) 
His

>  <MOL_WT>  (963) 
245.282

>  <LOGP>  (963) 
0.8857999999999997

>  <TPSA>  (963) 
81.14

>  <POPULARITY>  (963) 
7.6

>  <PROTECTED>  (963) 
TRUE

>  <SMILES>  (963) 
N[C@H](Cc1(cn(cn1)Cc2(ccccc2)))C(=O)O

>  <INCHIKEY>  (963) 
NMXSWQMJOZUQKY-GFCCVEGCSA-N

$$$$
Phe_4Sdihydroorotamido
     RDKit          2D

 23 24  0  0  0  0  0  0  0  0999 V2000
   -5.2545    1.7445    0.0000 N   0  0  0  0  0  0  0  0  0  0  0  0
   -5.6935    0.3102    0.0000 C   0  0  0  0  0  0  0  0  0  0  0  0
   -4.6708   -0.7871    0.0000 C   0  0  0  0  0  0  0  0  0  0  0  0
   -3.2092   -0.4501    0.0000 C   0  0  0  0  0  0  0  0  0  0  0  0
   -2.7702    0.9842    0.0000 C   0  0  0  0  0  0  0  0  0  0  0  0
   -1.3086    1.3212    0.0000 C   0  0  0  0  0  0  0  0  0  0  0  0
   -0.2859    0.2239    0.0000 C   0  0  0  0  0  0  0  0  0  0  0  0
   -0.7248   -1.2104    0.0000 C   0  0  0  0  0  0  0  0  0  0  0  0
   -2.1865   -1.5475    0.0000 C   0  0  0  0  0  0  0  0  0  0  0  0
    1.1758    0.5609    0.0000 N   0  0  0  0  0  0  0  0  0  0  0  0
    2.1985   -0.5364    0.0000 C   0  0  0  0  0  0  0  0  0  0  0  0
    1.7595   -1.9707    0.0000 O   0  0  0  0  0  0  0  0  0  0  0  0
    3.6601   -0.1994    0.0000 C   0  0  0  0  0  0  0  0  0  0  0  0
    4.6828   -1.2967    0.0000 C   0  0  0  0  0  0  0  0  0  0  0  0
    6.1445   -0.9597    0.0000 C   0  0  0  0  0  0  0  0  0  0  0  0
    7.1671   -2.0570    0.0000 O   0  0  0  0  0  0  0  0  0  0  0  0
    6.5834    0.4746    0.0000 N   0  0  0  0  0  0  0  0  0  0  0  0
    5.5607    1.5720    0.0000 C   0  0  0  0  0  0  0  0  0  0  0  0
    5.9997    3.0063    0.0000 O   0  0  0  0  0  0  0  0  0  0  0  0
    4.0991    1.2349    0.0000 N   0  0  0  0  0  0  0  0  0  0  0  0
   -7.1552   -0.0268    0.0000 C   0  0  0  0  0  0  0  0  0  0  0  0
   -7.5941   -1.4612    0.0000 O   0  0  0  0  0  0  0  0  0  0  0  0
   -8.1779    1.0705    0.0000 O   0  0  0  0  0  0  0  0  0  0  0  0
  2  1  1  1
  2  3  1  0
  3  4  1  0
  4  5  1  0
  5  6  2  0
  6  7  1  0
  7  8  2  0
  8  9  1  0
  7 10  1  0
 10 11  1  0
 11 12  2  0
 13 11  1  1
 13 14  1  0
 14 15  1  0
 15 16  2  0
 15 17  1  0
 17 18  1  0
 18 19  2  0
 18 20  1  0
  2 21  1  0
 21 22  2  0
 21 23  1  0
  9  4  2  0
 20 13  1  0
M  END
>  <rName>  (964) 
Phe_4Sdihydroorotamido

>  <PQ_SYMBOL>  (964) 
Phe_4Sdihydroorotamido

>  <FULL_NAME>  (964) 
4-(((Hexahydro-2,6-dioxo-4S-pyrimidinyl)carbonyl)amino)-L-phenylalanine

>  <IUPAC_CONDENSED>  (964) 
Phe(4-S-dihydroorotamido)

>  <IUPAC>  (964) 
(2S)-2-amino-3-(4-((4S)-2,6-dioxo-1,3-diazacyclohexan-4-ylcarbonylamino)phenyl)propanoic acid

>  <TYPE>  (964) 
Backbone

>  <CLASS>  (964) 
alpha

>  <ANALOG>  (964) 
Phe

>  <MOL_WT>  (964) 
320.305

>  <LOGP>  (964) 
-0.8223999999999989

>  <TPSA>  (964) 
150.61999999999998

>  <POPULARITY>  (964) 
4.4

>  <PROTECTED>  (964) 
TRUE

>  <SMILES>  (964) 
N[C@@H](Cc1(ccc(cc1)NC(=O)[C@@H]2(CC(=O)NC(=O)N2)))C(=O)O

>  <INCHIKEY>  (964) 
OLPMLGPIXOYZDU-UWVGGRQHSA-N

$$$$
D-Phe_4ureido
     RDKit          2D

 16 16  0  0  0  0  0  0  0  0999 V2000
   -2.8646    1.6700    0.0000 N   0  0  0  0  0  0  0  0  0  0  0  0
   -3.2013    0.2083    0.0000 C   0  0  0  0  0  0  0  0  0  0  0  0
   -2.1038   -0.8141    0.0000 C   0  0  0  0  0  0  0  0  0  0  0  0
   -0.6696   -0.3749    0.0000 C   0  0  0  0  0  0  0  0  0  0  0  0
   -0.3329    1.0868    0.0000 C   0  0  0  0  0  0  0  0  0  0  0  0
    1.1014    1.5261    0.0000 C   0  0  0  0  0  0  0  0  0  0  0  0
    2.1989    0.5036    0.0000 C   0  0  0  0  0  0  0  0  0  0  0  0
    1.8622   -0.9581    0.0000 C   0  0  0  0  0  0  0  0  0  0  0  0
    0.4280   -1.3974    0.0000 C   0  0  0  0  0  0  0  0  0  0  0  0
    3.6332    0.9429    0.0000 N   0  0  0  0  0  0  0  0  0  0  0  0
    4.7307   -0.0796    0.0000 C   0  0  0  0  0  0  0  0  0  0  0  0
    4.3940   -1.5413    0.0000 O   0  0  0  0  0  0  0  0  0  0  0  0
    6.1649    0.3597    0.0000 N   0  0  0  0  0  0  0  0  0  0  0  0
   -4.6356   -0.2309    0.0000 C   0  0  0  0  0  0  0  0  0  0  0  0
   -4.9723   -1.6927    0.0000 O   0  0  0  0  0  0  0  0  0  0  0  0
   -5.7331    0.7915    0.0000 O   0  0  0  0  0  0  0  0  0  0  0  0
  2  1  1  6
  2  3  1  0
  3  4  1  0
  4  5  1  0
  5  6  2  0
  6  7  1  0
  7  8  2  0
  8  9  1  0
  7 10  1  0
 10 11  1  0
 11 12  2  0
 11 13  1  0
  2 14  1  0
 14 15  2  0
 14 16  1  0
  9  4  2  0
M  END
>  <rName>  (965) 
D-Phe_4ureido

>  <PQ_SYMBOL>  (965) 
D-Phe_4ureido

>  <FULL_NAME>  (965) 
4-((Aminocarbonyl)amino)-D-phenylalanine

>  <IUPAC_CONDENSED>  (965) 
D-Phe(4-ureido)

>  <IUPAC>  (965) 
(2R)-2-amino-3-(4-(carbamoylamino)phenyl)propanoic acid

>  <TYPE>  (965) 
Backbone

>  <CLASS>  (965) 
alpha

>  <ANALOG>  (965) 
Phe

>  <MOL_WT>  (965) 
223.23199999999994

>  <LOGP>  (965) 
0.1316

>  <TPSA>  (965) 
118.44000000000001

>  <POPULARITY>  (965) 
13.2

>  <PROTECTED>  (965) 
TRUE

>  <SMILES>  (965) 
N[C@H](Cc1(ccc(cc1)NC(=O)N))C(=O)O

>  <INCHIKEY>  (965) 
ZTAKYRNNPKFXGS-MRVPVSSYSA-N

$$$$
Hyp_CONHEtNH2
     RDKit          2D

 15 15  0  0  0  0  0  0  0  0999 V2000
    3.2154   -1.4592    0.0000 N   0  0  0  0  0  0  0  0  0  0  0  0
    2.9077    0.0089    0.0000 C   0  0  0  0  0  0  0  0  0  0  0  0
    1.4164    0.1699    0.0000 C   0  0  0  0  0  0  0  0  0  0  0  0
    0.8024   -1.1986    0.0000 C   0  0  0  0  0  0  0  0  0  0  0  0
   -0.6657   -1.5063    0.0000 O   0  0  0  0  0  0  0  0  0  0  0  0
   -1.6663   -0.3888    0.0000 C   0  0  0  0  0  0  0  0  0  0  0  0
   -1.1987    1.0365    0.0000 O   0  0  0  0  0  0  0  0  0  0  0  0
   -3.1344   -0.6965    0.0000 N   0  0  0  0  0  0  0  0  0  0  0  0
   -4.1349    0.4211    0.0000 C   0  0  0  0  0  0  0  0  0  0  0  0
   -5.6030    0.1134    0.0000 C   0  0  0  0  0  0  0  0  0  0  0  0
   -6.6035    1.2310    0.0000 N   0  0  0  0  0  0  0  0  0  0  0  0
    1.9142   -2.2055    0.0000 C   0  0  0  0  0  0  0  0  0  0  0  0
    3.9145    1.1208    0.0000 C   0  0  0  0  0  0  0  0  0  0  0  0
    3.4551    2.5487    0.0000 O   0  0  0  0  0  0  0  0  0  0  0  0
    5.3809    0.8047    0.0000 O   0  0  0  0  0  0  0  0  0  0  0  0
  1  2  1  0
  2  3  1  0
  3  4  1  0
  4  5  1  6
  5  6  1  0
  6  7  2  0
  6  8  1  0
  8  9  1  0
  9 10  1  0
 10 11  1  0
  4 12  1  0
  2 13  1  1
 13 14  2  0
 13 15  1  0
 12  1  1  0
M  END
>  <rName>  (966) 
Hyp_CONHEtNH2

>  <PQ_SYMBOL>  (966) 
Hyp_CONHEtNH2

>  <FULL_NAME>  (966) 
(4R)-4-{[(2-Aminoethyl)carbamoyl]oxy}-L-proline

>  <IUPAC_CONDENSED>  (966) 
Hyp(CONHEtNH2)

>  <IUPAC>  (966) 
(2S,4R)-4-((2-aminoethyl)carbamoyloxy)pyrrolidine-2-carboxylic acid

>  <TYPE>  (966) 
Backbone

>  <CLASS>  (966) 
alpha

>  <ANALOG>  (966) 
Pro

>  <MOL_WT>  (966) 
217.22499999999997

>  <LOGP>  (966) 
-1.513599999999999

>  <TPSA>  (966) 
113.67999999999999

>  <POPULARITY>  (966) 
15.5

>  <PROTECTED>  (966) 
TRUE

>  <SMILES>  (966) 
N1[C@@H](C[C@@H](OC(=O)NCCN)C1)C(=O)O

>  <INCHIKEY>  (966) 
JPXWXGCURGFPEP-RITPCOANSA-N

$$$$
bAc5c
     RDKit          2D

 10 10  0  0  0  0  0  0  0  0999 V2000
    0.4848   -1.1867    0.0000 N   0  0  0  0  0  0  0  0  0  0  0  0
   -0.5004   -0.0556    0.0000 C   0  0  0  0  0  0  0  0  0  0  0  0
   -1.2289    1.2556    0.0000 C   0  0  0  0  0  0  0  0  0  0  0  0
   -2.7010    0.9680    0.0000 C   0  0  0  0  0  0  0  0  0  0  0  0
   -2.8824   -0.5210    0.0000 C   0  0  0  0  0  0  0  0  0  0  0  0
   -1.5223   -1.1536    0.0000 C   0  0  0  0  0  0  0  0  0  0  0  0
    0.7275    0.8059    0.0000 C   0  0  0  0  0  0  0  0  0  0  0  0
    2.0876    0.1733    0.0000 C   0  0  0  0  0  0  0  0  0  0  0  0
    2.2197   -1.3209    0.0000 O   0  0  0  0  0  0  0  0  0  0  0  0
    3.3155    1.0349    0.0000 O   0  0  0  0  0  0  0  0  0  0  0  0
  1  2  1  0
  2  3  1  0
  3  4  1  0
  4  5  1  0
  5  6  1  0
  2  7  1  0
  7  8  1  0
  8  9  2  0
  8 10  1  0
  6  2  1  0
M  END
>  <rName>  (967) 
bAc5c

>  <PQ_SYMBOL>  (967) 
bAc5c

>  <FULL_NAME>  (967) 
(1-Aminocyclopentyl)acetic acid

>  <IUPAC_CONDENSED>  (967) 
bAc5c

>  <IUPAC>  (967) 
2-(1-aminocyclopentyl)acetic acid

>  <TYPE>  (967) 
Backbone

>  <CLASS>  (967) 
beta

>  <ANALOG>  (967) 
X

>  <MOL_WT>  (967) 
143.186

>  <LOGP>  (967) 
0.7325999999999997

>  <TPSA>  (967) 
63.32000000000001

>  <POPULARITY>  (967) 
8.3

>  <PROTECTED>  (967) 
TRUE

>  <SMILES>  (967) 
NC1(CCCC1)CC(=O)O

>  <INCHIKEY>  (967) 
RSIDSVRZFUOPFV-UHFFFAOYSA-N

$$$$
octahydrocyclopentabpyrrole2S3aS6aS-2-CO2H
     RDKit          2D

 11 12  0  0  0  0  0  0  0  0999 V2000
    0.2516    1.2135    0.0000 N   0  0  0  0  0  0  0  0  0  0  0  0
    1.1333    0.0000    0.0000 C   0  0  0  0  0  0  0  0  0  0  0  0
    0.2516   -1.2135    0.0000 C   0  0  0  0  0  0  0  0  0  0  0  0
   -1.1750   -0.7500    0.0000 C   0  0  0  0  0  0  0  0  0  0  0  0
   -2.6016   -1.2135    0.0000 C   0  0  0  0  0  0  0  0  0  0  0  0
   -3.4832   -0.0000    0.0000 C   0  0  0  0  0  0  0  0  0  0  0  0
   -2.6016    1.2135    0.0000 C   0  0  0  0  0  0  0  0  0  0  0  0
   -1.1750    0.7500    0.0000 C   0  0  0  0  0  0  0  0  0  0  0  0
    2.6333    0.0000    0.0000 C   0  0  0  0  0  0  0  0  0  0  0  0
    3.3833    1.2990    0.0000 O   0  0  0  0  0  0  0  0  0  0  0  0
    3.3833   -1.2990    0.0000 O   0  0  0  0  0  0  0  0  0  0  0  0
  1  2  1  0
  2  3  1  0
  4  3  1  6
  4  5  1  0
  5  6  1  0
  6  7  1  0
  8  7  1  6
  2  9  1  6
  9 10  2  0
  9 11  1  0
  8  1  1  0
  8  4  1  0
M  END
>  <rName>  (968) 
octahydrocyclopentabpyrrole2S3aS6aS-2-CO2H

>  <PQ_SYMBOL>  (968) 
octahydrocyclopentabpyrrole2S3aS6aS-2-CO2H

>  <FULL_NAME>  (968) 
(2s,3as,6as)-octahydrocyclopenta[b]pyrrole-2-carboxylic acid

>  <IUPAC_CONDENSED>  (968) 
octahydrocyclopenta[b]pyrrole(2S,3aS,6aS)-2-CO2H

>  <IUPAC>  (968) 
(1S,3S,5S)-2-azabicyclo[3.3.0]octane-3-carboxylic acid

>  <TYPE>  (968) 
Backbone

>  <CLASS>  (968) 
alpha

>  <ANALOG>  (968) 
Pro

>  <MOL_WT>  (968) 
155.197

>  <LOGP>  (968) 
0.6015999999999997

>  <TPSA>  (968) 
49.33

>  <POPULARITY>  (968) 
7

>  <PROTECTED>  (968) 
TRUE

>  <SMILES>  (968) 
N1[C@@H](C[C@@H]2(CCC[C@H]12))C(=O)O

>  <INCHIKEY>  (968) 
OQHKEWIEKYQINX-ACZMJKKPSA-N

$$$$
Oic_3aR_7aS
     RDKit          2D

 12 13  0  0  0  0  0  0  0  0999 V2000
   -0.5689    1.2135    0.0000 N   0  0  0  0  0  0  0  0  0  0  0  0
   -1.4506   -0.0000    0.0000 C   0  0  0  0  0  0  0  0  0  0  0  0
   -0.5689   -1.2135    0.0000 C   0  0  0  0  0  0  0  0  0  0  0  0
    0.8577   -0.7500    0.0000 C   0  0  0  0  0  0  0  0  0  0  0  0
    2.1567   -1.5000    0.0000 C   0  0  0  0  0  0  0  0  0  0  0  0
    3.4557   -0.7500    0.0000 C   0  0  0  0  0  0  0  0  0  0  0  0
    3.4557    0.7500    0.0000 C   0  0  0  0  0  0  0  0  0  0  0  0
    2.1567    1.5000    0.0000 C   0  0  0  0  0  0  0  0  0  0  0  0
    0.8577    0.7500    0.0000 C   0  0  0  0  0  0  0  0  0  0  0  0
   -2.9506   -0.0000    0.0000 C   0  0  0  0  0  0  0  0  0  0  0  0
   -3.7006   -1.2990    0.0000 O   0  0  0  0  0  0  0  0  0  0  0  0
   -3.7006    1.2990    0.0000 O   0  0  0  0  0  0  0  0  0  0  0  0
  1  2  1  0
  2  3  1  0
  4  3  1  6
  4  5  1  0
  5  6  1  0
  6  7  1  0
  7  8  1  0
  9  8  1  1
  2 10  1  1
 10 11  2  0
 10 12  1  0
  9  1  1  0
  9  4  1  0
M  END
>  <rName>  (969) 
Oic_3aR_7aS

>  <PQ_SYMBOL>  (969) 
Oic_3aR_7aS

>  <FULL_NAME>  (969) 
(2S,3aR,7aS)-octahydro-1H-indole-2-carboxylic acid

>  <IUPAC_CONDENSED>  (969) 
Oic(3aR,7aS)

>  <IUPAC>  (969) 
(1R,6S,8S)-7-azabicyclo[4.3.0]nonane-8-carboxylic acid

>  <TYPE>  (969) 
Backbone

>  <CLASS>  (969) 
alpha

>  <ANALOG>  (969) 
Pro

>  <MOL_WT>  (969) 
169.22400000000002

>  <LOGP>  (969) 
0.9917

>  <TPSA>  (969) 
49.33

>  <POPULARITY>  (969) 
6.4

>  <PROTECTED>  (969) 
TRUE

>  <SMILES>  (969) 
N1[C@@H](C[C@H]2(CCCC[C@H]12))C(=O)O

>  <INCHIKEY>  (969) 
CQYBNXGHMBNGCG-CSMHCCOUSA-N

$$$$
D-Phe_2Cl_4F
     RDKit          2D

 14 14  0  0  0  0  0  0  0  0999 V2000
   -1.7174    1.8436    0.0000 N   0  0  0  0  0  0  0  0  0  0  0  0
   -2.1036    0.3942    0.0000 C   0  0  0  0  0  0  0  0  0  0  0  0
   -1.0414   -0.6650    0.0000 C   0  0  0  0  0  0  0  0  0  0  0  0
    0.4069   -0.2747    0.0000 C   0  0  0  0  0  0  0  0  0  0  0  0
    0.7931    1.1747    0.0000 C   0  0  0  0  0  0  0  0  0  0  0  0
    2.2415    1.5649    0.0000 C   0  0  0  0  0  0  0  0  0  0  0  0
    3.3036    0.5057    0.0000 C   0  0  0  0  0  0  0  0  0  0  0  0
    4.7520    0.8960    0.0000 F   0  0  0  0  0  0  0  0  0  0  0  0
    2.9174   -0.9437    0.0000 C   0  0  0  0  0  0  0  0  0  0  0  0
    1.4691   -1.3339    0.0000 C   0  0  0  0  0  0  0  0  0  0  0  0
    1.0829   -2.7834    0.0000 Cl  0  0  0  0  0  0  0  0  0  0  0  0
   -3.5519    0.0039    0.0000 C   0  0  0  0  0  0  0  0  0  0  0  0
   -3.9381   -1.4455    0.0000 O   0  0  0  0  0  0  0  0  0  0  0  0
   -4.6140    1.0631    0.0000 O   0  0  0  0  0  0  0  0  0  0  0  0
  2  1  1  6
  2  3  1  0
  3  4  1  0
  4  5  1  0
  5  6  2  0
  6  7  1  0
  7  8  1  0
  7  9  2  0
  9 10  1  0
 10 11  1  0
  2 12  1  0
 12 13  2  0
 12 14  1  0
 10  4  2  0
M  END
>  <rName>  (970) 
D-Phe_2Cl_4F

>  <PQ_SYMBOL>  (970) 
D-Phe_2Cl_4F

>  <FULL_NAME>  (970) 
2-Chloro-4-Fluoro-D-Phenylalanine

>  <IUPAC_CONDENSED>  (970) 
D-Phe(2-Cl,4-F)

>  <IUPAC>  (970) 
(2R)-2-amino-3-(2-chloro-4-fluorophenyl)propanoic acid

>  <TYPE>  (970) 
Backbone

>  <CLASS>  (970) 
alpha

>  <ANALOG>  (970) 
Phe

>  <MOL_WT>  (970) 
217.62699999999998

>  <LOGP>  (970) 
1.4335000000000002

>  <TPSA>  (970) 
63.32000000000001

>  <POPULARITY>  (970) 
4.3

>  <PROTECTED>  (970) 
TRUE

>  <SMILES>  (970) 
N[C@H](Cc1(ccc(F)cc1Cl))C(=O)O

>  <INCHIKEY>  (970) 
BCUFAMXOPAUSIP-MRVPVSSYSA-N

$$$$
D-Phe_2F_4Cl
     RDKit          2D

 14 14  0  0  0  0  0  0  0  0999 V2000
   -1.7174    1.8436    0.0000 N   0  0  0  0  0  0  0  0  0  0  0  0
   -2.1036    0.3942    0.0000 C   0  0  0  0  0  0  0  0  0  0  0  0
   -1.0414   -0.6650    0.0000 C   0  0  0  0  0  0  0  0  0  0  0  0
    0.4069   -0.2747    0.0000 C   0  0  0  0  0  0  0  0  0  0  0  0
    0.7931    1.1747    0.0000 C   0  0  0  0  0  0  0  0  0  0  0  0
    2.2415    1.5649    0.0000 C   0  0  0  0  0  0  0  0  0  0  0  0
    3.3036    0.5057    0.0000 C   0  0  0  0  0  0  0  0  0  0  0  0
    4.7520    0.8960    0.0000 Cl  0  0  0  0  0  0  0  0  0  0  0  0
    2.9174   -0.9437    0.0000 C   0  0  0  0  0  0  0  0  0  0  0  0
    1.4691   -1.3339    0.0000 C   0  0  0  0  0  0  0  0  0  0  0  0
    1.0829   -2.7834    0.0000 F   0  0  0  0  0  0  0  0  0  0  0  0
   -3.5519    0.0039    0.0000 C   0  0  0  0  0  0  0  0  0  0  0  0
   -3.9381   -1.4455    0.0000 O   0  0  0  0  0  0  0  0  0  0  0  0
   -4.6140    1.0631    0.0000 O   0  0  0  0  0  0  0  0  0  0  0  0
  2  1  1  6
  2  3  1  0
  3  4  1  0
  4  5  1  0
  5  6  2  0
  6  7  1  0
  7  8  1  0
  7  9  2  0
  9 10  1  0
 10 11  1  0
  2 12  1  0
 12 13  2  0
 12 14  1  0
 10  4  2  0
M  END
>  <rName>  (971) 
D-Phe_2F_4Cl

>  <PQ_SYMBOL>  (971) 
D-Phe_2F_4Cl

>  <FULL_NAME>  (971) 
2-Fluoro-4-Chloro-D-Phenylalanine

>  <IUPAC_CONDENSED>  (971) 
D-Phe(2-F,4-Cl)

>  <IUPAC>  (971) 
(2R)-2-amino-3-(4-chloro-2-fluorophenyl)propanoic acid

>  <TYPE>  (971) 
Backbone

>  <CLASS>  (971) 
alpha

>  <ANALOG>  (971) 
Phe

>  <MOL_WT>  (971) 
217.62699999999998

>  <LOGP>  (971) 
1.4335000000000002

>  <TPSA>  (971) 
63.32000000000001

>  <POPULARITY>  (971) 
3

>  <PROTECTED>  (971) 
TRUE

>  <SMILES>  (971) 
N[C@H](Cc1(ccc(Cl)cc1F))C(=O)O

>  <INCHIKEY>  (971) 
ZPMGQOHZMMWUAT-MRVPVSSYSA-N

$$$$
D-Phe_24diF
     RDKit          2D

 14 14  0  0  0  0  0  0  0  0999 V2000
   -1.7174    1.8436    0.0000 N   0  0  0  0  0  0  0  0  0  0  0  0
   -2.1036    0.3942    0.0000 C   0  0  0  0  0  0  0  0  0  0  0  0
   -1.0414   -0.6650    0.0000 C   0  0  0  0  0  0  0  0  0  0  0  0
    0.4069   -0.2747    0.0000 C   0  0  0  0  0  0  0  0  0  0  0  0
    0.7931    1.1747    0.0000 C   0  0  0  0  0  0  0  0  0  0  0  0
    2.2415    1.5649    0.0000 C   0  0  0  0  0  0  0  0  0  0  0  0
    3.3036    0.5057    0.0000 C   0  0  0  0  0  0  0  0  0  0  0  0
    4.7520    0.8960    0.0000 F   0  0  0  0  0  0  0  0  0  0  0  0
    2.9174   -0.9437    0.0000 C   0  0  0  0  0  0  0  0  0  0  0  0
    1.4691   -1.3339    0.0000 C   0  0  0  0  0  0  0  0  0  0  0  0
    1.0829   -2.7834    0.0000 F   0  0  0  0  0  0  0  0  0  0  0  0
   -3.5519    0.0039    0.0000 C   0  0  0  0  0  0  0  0  0  0  0  0
   -3.9381   -1.4455    0.0000 O   0  0  0  0  0  0  0  0  0  0  0  0
   -4.6140    1.0631    0.0000 O   0  0  0  0  0  0  0  0  0  0  0  0
  2  1  1  6
  2  3  1  0
  3  4  1  0
  4  5  1  0
  5  6  2  0
  6  7  1  0
  7  8  1  0
  7  9  2  0
  9 10  1  0
 10 11  1  0
  2 12  1  0
 12 13  2  0
 12 14  1  0
 10  4  2  0
M  END
>  <rName>  (972) 
D-Phe_24diF

>  <PQ_SYMBOL>  (972) 
D-Phe_24diF

>  <FULL_NAME>  (972) 
2,4-Difluoro-D-Phenylalanine

>  <IUPAC_CONDENSED>  (972) 
D-Phe(2,4-diF)

>  <IUPAC>  (972) 
(2R)-2-amino-3-(2,4-difluorophenyl)propanoic acid

>  <TYPE>  (972) 
Backbone

>  <CLASS>  (972) 
alpha

>  <ANALOG>  (972) 
Phe

>  <MOL_WT>  (972) 
201.17199999999997

>  <LOGP>  (972) 
0.9192

>  <TPSA>  (972) 
63.32000000000001

>  <POPULARITY>  (972) 
6

>  <PROTECTED>  (972) 
TRUE

>  <SMILES>  (972) 
N[C@H](Cc1(ccc(F)cc1F))C(=O)O

>  <INCHIKEY>  (972) 
UEFLPVKMPDEMFW-MRVPVSSYSA-N

$$$$
D-Phe_24_5triF
     RDKit          2D

 15 15  0  0  0  0  0  0  0  0999 V2000
   -1.7432    1.8004    0.0000 N   0  0  0  0  0  0  0  0  0  0  0  0
   -2.2534    0.3899    0.0000 C   0  0  0  0  0  0  0  0  0  0  0  0
   -1.2870   -0.7573    0.0000 C   0  0  0  0  0  0  0  0  0  0  0  0
    0.1897   -0.4940    0.0000 C   0  0  0  0  0  0  0  0  0  0  0  0
    0.7000    0.9165    0.0000 C   0  0  0  0  0  0  0  0  0  0  0  0
    2.1767    1.1799    0.0000 C   0  0  0  0  0  0  0  0  0  0  0  0
    2.6869    2.5904    0.0000 F   0  0  0  0  0  0  0  0  0  0  0  0
    3.1431    0.0327    0.0000 C   0  0  0  0  0  0  0  0  0  0  0  0
    4.6198    0.2961    0.0000 F   0  0  0  0  0  0  0  0  0  0  0  0
    2.6328   -1.3778    0.0000 C   0  0  0  0  0  0  0  0  0  0  0  0
    1.1561   -1.6412    0.0000 C   0  0  0  0  0  0  0  0  0  0  0  0
    0.6458   -3.0517    0.0000 F   0  0  0  0  0  0  0  0  0  0  0  0
   -3.7301    0.1265    0.0000 C   0  0  0  0  0  0  0  0  0  0  0  0
   -4.2404   -1.2840    0.0000 O   0  0  0  0  0  0  0  0  0  0  0  0
   -4.6966    1.2737    0.0000 O   0  0  0  0  0  0  0  0  0  0  0  0
  2  1  1  6
  2  3  1  0
  3  4  1  0
  4  5  1  0
  5  6  2  0
  6  7  1  0
  6  8  1  0
  8  9  1  0
  8 10  2  0
 10 11  1  0
 11 12  1  0
  2 13  1  0
 13 14  2  0
 13 15  1  0
 11  4  2  0
M  END
>  <rName>  (973) 
D-Phe_24_5triF

>  <PQ_SYMBOL>  (973) 
D-Phe_24_5triF

>  <FULL_NAME>  (973) 
2,4,5-Trifluoro-D-Phenylalanine

>  <IUPAC_CONDENSED>  (973) 
D-Phe(2,4,5-triF)

>  <IUPAC>  (973) 
(2R)-2-amino-3-(2,4,5-trifluorophenyl)propanoic acid

>  <TYPE>  (973) 
Backbone

>  <CLASS>  (973) 
alpha

>  <ANALOG>  (973) 
Phe

>  <MOL_WT>  (973) 
219.16199999999998

>  <LOGP>  (973) 
1.0583000000000002

>  <TPSA>  (973) 
63.32000000000001

>  <POPULARITY>  (973) 
5.5

>  <PROTECTED>  (973) 
TRUE

>  <SMILES>  (973) 
N[C@H](Cc1(cc(F)c(F)cc1F))C(=O)O

>  <INCHIKEY>  (973) 
SWJFYJHCOWRRLR-MRVPVSSYSA-N

$$$$
D-hPhe_24diF
     RDKit          2D

 15 15  0  0  0  0  0  0  0  0999 V2000
   -3.2293   -1.8059    0.0000 N   0  0  0  0  0  0  0  0  0  0  0  0
   -2.9633   -0.3297    0.0000 C   0  0  0  0  0  0  0  0  0  0  0  0
   -1.5519    0.1780    0.0000 C   0  0  0  0  0  0  0  0  0  0  0  0
   -0.4064   -0.7904    0.0000 C   0  0  0  0  0  0  0  0  0  0  0  0
    1.0050   -0.2827    0.0000 C   0  0  0  0  0  0  0  0  0  0  0  0
    1.2710    1.1935    0.0000 C   0  0  0  0  0  0  0  0  0  0  0  0
    2.6825    1.7012    0.0000 C   0  0  0  0  0  0  0  0  0  0  0  0
    3.8279    0.7327    0.0000 C   0  0  0  0  0  0  0  0  0  0  0  0
    5.2394    1.2405    0.0000 F   0  0  0  0  0  0  0  0  0  0  0  0
    3.5619   -0.7435    0.0000 C   0  0  0  0  0  0  0  0  0  0  0  0
    2.1505   -1.2512    0.0000 C   0  0  0  0  0  0  0  0  0  0  0  0
    1.8844   -2.7274    0.0000 F   0  0  0  0  0  0  0  0  0  0  0  0
   -4.1088    0.6388    0.0000 C   0  0  0  0  0  0  0  0  0  0  0  0
   -3.8427    2.1150    0.0000 O   0  0  0  0  0  0  0  0  0  0  0  0
   -5.5202    0.1311    0.0000 O   0  0  0  0  0  0  0  0  0  0  0  0
  2  1  1  1
  2  3  1  0
  3  4  1  0
  4  5  1  0
  5  6  1  0
  6  7  2  0
  7  8  1  0
  8  9  1  0
  8 10  2  0
 10 11  1  0
 11 12  1  0
  2 13  1  0
 13 14  2  0
 13 15  1  0
 11  5  2  0
M  END
>  <rName>  (974) 
D-hPhe_24diF

>  <PQ_SYMBOL>  (974) 
D-hPhe_24diF

>  <FULL_NAME>  (974) 
2,4-Difluoro-D-homophenylalanine

>  <IUPAC_CONDENSED>  (974) 
D-hPhe(2,4-diF)

>  <IUPAC>  (974) 
(2R)-2-amino-4-(2,4-difluorophenyl)butanoic acid

>  <TYPE>  (974) 
Backbone

>  <CLASS>  (974) 
alpha

>  <ANALOG>  (974) 
Phe

>  <MOL_WT>  (974) 
215.19899999999998

>  <LOGP>  (974) 
1.3093

>  <TPSA>  (974) 
63.32000000000001

>  <POPULARITY>  (974) 
3.7

>  <PROTECTED>  (974) 
TRUE

>  <SMILES>  (974) 
N[C@H](CCc1(ccc(F)cc1F))C(=O)O

>  <INCHIKEY>  (974) 
RXTYJIYAYABQKD-SECBINFHSA-N

$$$$
D-Phe_F5
     RDKit          2D

 17 17  0  0  0  0  0  0  0  0999 V2000
   -2.1241    1.6089    0.0000 N   0  0  0  0  0  0  0  0  0  0  0  0
   -2.4801    0.1517    0.0000 C   0  0  0  0  0  0  0  0  0  0  0  0
   -1.3962   -0.8851    0.0000 C   0  0  0  0  0  0  0  0  0  0  0  0
    0.0438   -0.4648    0.0000 C   0  0  0  0  0  0  0  0  0  0  0  0
    0.3997    0.9923    0.0000 C   0  0  0  0  0  0  0  0  0  0  0  0
   -0.6842    2.0292    0.0000 F   0  0  0  0  0  0  0  0  0  0  0  0
    1.8397    1.4126    0.0000 C   0  0  0  0  0  0  0  0  0  0  0  0
    2.1956    2.8697    0.0000 F   0  0  0  0  0  0  0  0  0  0  0  0
    2.9236    0.3757    0.0000 C   0  0  0  0  0  0  0  0  0  0  0  0
    4.3635    0.7960    0.0000 F   0  0  0  0  0  0  0  0  0  0  0  0
    2.5676   -1.0814    0.0000 C   0  0  0  0  0  0  0  0  0  0  0  0
    3.6515   -2.1183    0.0000 F   0  0  0  0  0  0  0  0  0  0  0  0
    1.1277   -1.5017    0.0000 C   0  0  0  0  0  0  0  0  0  0  0  0
    0.7717   -2.9589    0.0000 F   0  0  0  0  0  0  0  0  0  0  0  0
   -3.9200   -0.2685    0.0000 C   0  0  0  0  0  0  0  0  0  0  0  0
   -4.2760   -1.7257    0.0000 O   0  0  0  0  0  0  0  0  0  0  0  0
   -5.0039    0.7683    0.0000 O   0  0  0  0  0  0  0  0  0  0  0  0
  2  1  1  6
  2  3  1  0
  3  4  1  0
  4  5  2  0
  5  6  1  0
  5  7  1  0
  7  8  1  0
  7  9  2  0
  9 10  1  0
  9 11  1  0
 11 12  1  0
 11 13  2  0
 13 14  1  0
  2 15  1  0
 15 16  2  0
 15 17  1  0
 13  4  1  0
M  END
>  <rName>  (975) 
D-Phe_F5

>  <PQ_SYMBOL>  (975) 
D-Phe_F5

>  <FULL_NAME>  (975) 
D-Pentafluorophenylalanine

>  <IUPAC_CONDENSED>  (975) 
D-Phe(F5)

>  <IUPAC>  (975) 
(2R)-2-amino-3-(2,3,4,5,6-pentafluorophenyl)propanoic acid

>  <TYPE>  (975) 
Backbone

>  <CLASS>  (975) 
alpha

>  <ANALOG>  (975) 
Phe

>  <MOL_WT>  (975) 
255.14199999999997

>  <LOGP>  (975) 
1.3365000000000002

>  <TPSA>  (975) 
63.32000000000001

>  <POPULARITY>  (975) 
9.2

>  <PROTECTED>  (975) 
TRUE

>  <SMILES>  (975) 
N[C@H](Cc1(c(F)c(F)c(F)c(F)c1F))C(=O)O

>  <INCHIKEY>  (975) 
YYTDJPUFAVPHQA-GSVOUGTGSA-N

$$$$
Trp_6OMe
     RDKit          2D

 17 18  0  0  0  0  0  0  0  0999 V2000
   -3.4079   -1.6691    0.0000 N   0  0  0  0  0  0  0  0  0  0  0  0
   -3.3136   -0.1721    0.0000 C   0  0  0  0  0  0  0  0  0  0  0  0
   -1.9699    0.4947    0.0000 C   0  0  0  0  0  0  0  0  0  0  0  0
   -0.7207   -0.3355    0.0000 C   0  0  0  0  0  0  0  0  0  0  0  0
   -0.6580   -1.8342    0.0000 C   0  0  0  0  0  0  0  0  0  0  0  0
    0.7867   -2.2377    0.0000 N   0  0  0  0  0  0  0  0  0  0  0  0
    1.6169   -0.9885    0.0000 C   0  0  0  0  0  0  0  0  0  0  0  0
    3.1008   -0.7695    0.0000 C   0  0  0  0  0  0  0  0  0  0  0  0
    3.6532    0.6251    0.0000 C   0  0  0  0  0  0  0  0  0  0  0  0
    5.1371    0.8441    0.0000 O   0  0  0  0  0  0  0  0  0  0  0  0
    6.0687   -0.3316    0.0000 C   0  0  0  0  0  0  0  0  0  0  0  0
    2.7216    1.8007    0.0000 C   0  0  0  0  0  0  0  0  0  0  0  0
    1.2377    1.5818    0.0000 C   0  0  0  0  0  0  0  0  0  0  0  0
    0.6853    0.1872    0.0000 C   0  0  0  0  0  0  0  0  0  0  0  0
   -4.5629    0.6581    0.0000 C   0  0  0  0  0  0  0  0  0  0  0  0
   -4.4685    2.1552    0.0000 O   0  0  0  0  0  0  0  0  0  0  0  0
   -5.9065   -0.0087    0.0000 O   0  0  0  0  0  0  0  0  0  0  0  0
  2  1  1  6
  2  3  1  0
  3  4  1  0
  4  5  2  0
  5  6  1  0
  6  7  1  0
  7  8  1  0
  8  9  2  0
  9 10  1  0
 10 11  1  0
  9 12  1  0
 12 13  2  0
 13 14  1  0
  2 15  1  0
 15 16  2  0
 15 17  1  0
 14  4  1  0
 14  7  2  0
M  END
>  <rName>  (976) 
Trp_6OMe

>  <PQ_SYMBOL>  (976) 
Trp_6OMe

>  <FULL_NAME>  (976) 
6-Methoxy-L-Tryptophan

>  <IUPAC_CONDENSED>  (976) 
Trp(6-OMe)

>  <IUPAC>  (976) 
(2S)-2-amino-3-(6-methoxy-1H-indol-3-yl)propanoic acid

>  <TYPE>  (976) 
Backbone

>  <CLASS>  (976) 
alpha

>  <ANALOG>  (976) 
Trp

>  <MOL_WT>  (976) 
234.25499999999997

>  <LOGP>  (976) 
1.1309

>  <TPSA>  (976) 
88.34000000000002

>  <POPULARITY>  (976) 
7.1

>  <PROTECTED>  (976) 
TRUE

>  <SMILES>  (976) 
N[C@@H](Cc1(c[nH]c2(cc(OC)ccc12)))C(=O)O

>  <INCHIKEY>  (976) 
ASMBUJRMSWTSLE-JTQLQIEISA-N

$$$$
Trp_6Br
     RDKit          2D

 16 17  0  0  0  0  0  0  0  0999 V2000
   -3.0545   -1.6426    0.0000 N   0  0  0  0  0  0  0  0  0  0  0  0
   -2.9369   -0.1473    0.0000 C   0  0  0  0  0  0  0  0  0  0  0  0
   -1.5831    0.4986    0.0000 C   0  0  0  0  0  0  0  0  0  0  0  0
   -0.3468   -0.3509    0.0000 C   0  0  0  0  0  0  0  0  0  0  0  0
   -0.3075   -1.8504    0.0000 C   0  0  0  0  0  0  0  0  0  0  0  0
    1.1308   -2.2763    0.0000 N   0  0  0  0  0  0  0  0  0  0  0  0
    1.9803   -1.0400    0.0000 C   0  0  0  0  0  0  0  0  0  0  0  0
    3.4675   -0.8441    0.0000 C   0  0  0  0  0  0  0  0  0  0  0  0
    4.0414    0.5417    0.0000 C   0  0  0  0  0  0  0  0  0  0  0  0
    5.5285    0.7376    0.0000 Br  0  0  0  0  0  0  0  0  0  0  0  0
    3.1281    1.7317    0.0000 C   0  0  0  0  0  0  0  0  0  0  0  0
    1.6410    1.5358    0.0000 C   0  0  0  0  0  0  0  0  0  0  0  0
    1.0671    0.1499    0.0000 C   0  0  0  0  0  0  0  0  0  0  0  0
   -4.1732    0.7023    0.0000 C   0  0  0  0  0  0  0  0  0  0  0  0
   -4.0556    2.1976    0.0000 O   0  0  0  0  0  0  0  0  0  0  0  0
   -5.5270    0.0564    0.0000 O   0  0  0  0  0  0  0  0  0  0  0  0
  2  1  1  6
  2  3  1  0
  3  4  1  0
  4  5  2  0
  5  6  1  0
  6  7  1  0
  7  8  1  0
  8  9  2  0
  9 10  1  0
  9 11  1  0
 11 12  2  0
 12 13  1  0
  2 14  1  0
 14 15  2  0
 14 16  1  0
 13  7  2  0
 13  4  1  0
M  END
>  <rName>  (977) 
Trp_6Br

>  <PQ_SYMBOL>  (977) 
Trp_6Br

>  <FULL_NAME>  (977) 
6-Bromo-L-Tryptophan

>  <IUPAC_CONDENSED>  (977) 
Trp(6-Br)

>  <IUPAC>  (977) 
(2S)-2-amino-3-(6-bromo-1H-indol-3-yl)propanoic acid

>  <TYPE>  (977) 
Backbone

>  <CLASS>  (977) 
alpha

>  <ANALOG>  (977) 
Trp

>  <MOL_WT>  (977) 
283.125

>  <LOGP>  (977) 
1.8848000000000003

>  <TPSA>  (977) 
79.11

>  <POPULARITY>  (977) 
12.8

>  <PROTECTED>  (977) 
TRUE

>  <SMILES>  (977) 
N[C@@H](Cc2(c[nH]c1(cc(Br)ccc12)))C(=O)O

>  <INCHIKEY>  (977) 
OAORYCZPERQARS-VIFPVBQESA-N

$$$$
aMeArg
     RDKit          2D

 13 12  0  0  0  0  0  0  0  0999 V2000
   -1.6020    1.8645    0.0000 N   0  0  0  0  0  0  0  0  0  0  0  0
   -2.3333    0.5548    0.0000 C   0  0  0  0  0  0  0  0  0  0  0  0
   -3.6430    1.2861    0.0000 C   0  0  0  0  0  0  0  0  0  0  0  0
   -1.0236   -0.1765    0.0000 C   0  0  0  0  0  0  0  0  0  0  0  0
    0.2645    0.5921    0.0000 C   0  0  0  0  0  0  0  0  0  0  0  0
    1.5742   -0.1392    0.0000 C   0  0  0  0  0  0  0  0  0  0  0  0
    2.8623    0.6294    0.0000 N   0  0  0  0  0  0  0  0  0  0  0  0
    4.1720   -0.1019    0.0000 C   0  0  0  0  0  0  0  0  0  0  0  0
    5.4601    0.6667    0.0000 N   0  0  0  0  0  0  0  0  0  0  0  0
    4.1936   -1.6017    0.0000 N   0  0  0  0  0  0  0  0  0  0  0  0
   -3.0645   -0.7549    0.0000 C   0  0  0  0  0  0  0  0  0  0  0  0
   -4.5644   -0.7764    0.0000 O   0  0  0  0  0  0  0  0  0  0  0  0
   -2.2960   -2.0430    0.0000 O   0  0  0  0  0  0  0  0  0  0  0  0
  1  2  1  0
  2  3  1  6
  2  4  1  0
  4  5  1  0
  5  6  1  0
  6  7  1  0
  7  8  2  0
  8  9  1  0
  8 10  1  0
  2 11  1  0
 11 12  2  0
 11 13  1  0
M  END
>  <rName>  (978) 
aMeArg

>  <PQ_SYMBOL>  (978) 
aMeArg

>  <FULL_NAME>  (978) 
alpha-Methyl-L-Arginine

>  <IUPAC_CONDENSED>  (978) 
aMeArg

>  <IUPAC>  (978) 
(2S)-2-amino-5-((diaminomethylidene)amino)-2-methylpentanoic acid

>  <TYPE>  (978) 
Backbone

>  <CLASS>  (978) 
alpha

>  <ANALOG>  (978) 
Arg

>  <MOL_WT>  (978) 
188.231

>  <LOGP>  (978) 
-1.1579999999999986

>  <TPSA>  (978) 
127.71999999999998

>  <POPULARITY>  (978) 
4.4

>  <PROTECTED>  (978) 
TRUE

>  <SMILES>  (978) 
N[C@@](C)(CCCN=C(N)N)C(=O)O

>  <INCHIKEY>  (978) 
LKRMSSDDHQZQHJ-ZETCQYMHSA-N

$$$$
Trp_4F
     RDKit          2D

 16 17  0  0  0  0  0  0  0  0999 V2000
   -2.7276   -1.8081    0.0000 N   0  0  0  0  0  0  0  0  0  0  0  0
   -2.6325   -0.3111    0.0000 C   0  0  0  0  0  0  0  0  0  0  0  0
   -1.2885    0.3550    0.0000 C   0  0  0  0  0  0  0  0  0  0  0  0
   -0.0397   -0.4758    0.0000 C   0  0  0  0  0  0  0  0  0  0  0  0
    0.0222   -1.9745    0.0000 C   0  0  0  0  0  0  0  0  0  0  0  0
    1.4667   -2.3788    0.0000 N   0  0  0  0  0  0  0  0  0  0  0  0
    2.2976   -1.1299    0.0000 C   0  0  0  0  0  0  0  0  0  0  0  0
    3.7816   -0.9117    0.0000 C   0  0  0  0  0  0  0  0  0  0  0  0
    4.3347    0.4826    0.0000 C   0  0  0  0  0  0  0  0  0  0  0  0
    3.4037    1.6587    0.0000 C   0  0  0  0  0  0  0  0  0  0  0  0
    1.9196    1.4405    0.0000 C   0  0  0  0  0  0  0  0  0  0  0  0
    0.9886    2.6166    0.0000 F   0  0  0  0  0  0  0  0  0  0  0  0
    1.3666    0.0462    0.0000 C   0  0  0  0  0  0  0  0  0  0  0  0
   -3.8814    0.5198    0.0000 C   0  0  0  0  0  0  0  0  0  0  0  0
   -3.7863    2.0167    0.0000 O   0  0  0  0  0  0  0  0  0  0  0  0
   -5.2254   -0.1464    0.0000 O   0  0  0  0  0  0  0  0  0  0  0  0
  2  1  1  6
  2  3  1  0
  3  4  1  0
  4  5  2  0
  5  6  1  0
  6  7  1  0
  7  8  2  0
  8  9  1  0
  9 10  2  0
 10 11  1  0
 11 12  1  0
 11 13  2  0
  2 14  1  0
 14 15  2  0
 14 16  1  0
 13  7  1  0
 13  4  1  0
M  END
>  <rName>  (979) 
Trp_4F

>  <PQ_SYMBOL>  (979) 
Trp_4F

>  <FULL_NAME>  (979) 
4-Fluoro-L-Tryptophan

>  <IUPAC_CONDENSED>  (979) 
Trp(4-F)

>  <IUPAC>  (979) 
(2S)-2-amino-3-(4-fluoro-1H-indol-3-yl)propanoic acid

>  <TYPE>  (979) 
Backbone

>  <CLASS>  (979) 
alpha

>  <ANALOG>  (979) 
Trp

>  <MOL_WT>  (979) 
222.21899999999997

>  <LOGP>  (979) 
1.2614000000000003

>  <TPSA>  (979) 
79.11

>  <POPULARITY>  (979) 
15.4

>  <PROTECTED>  (979) 
TRUE

>  <SMILES>  (979) 
N[C@@H](Cc2(c[nH]c1(cccc(F)c12)))C(=O)O

>  <INCHIKEY>  (979) 
DEBQMEYEKKWIKC-QMMMGPOBSA-N

$$$$
D-Phe_pyrid3yl
     RDKit          2D

 18 19  0  0  0  0  0  0  0  0999 V2000
   -3.2769    1.7174    0.0000 N   0  0  0  0  0  0  0  0  0  0  0  0
   -3.8349    0.3251    0.0000 C   0  0  0  0  0  0  0  0  0  0  0  0
   -2.9082   -0.8544    0.0000 C   0  0  0  0  0  0  0  0  0  0  0  0
   -1.4234   -0.6415    0.0000 C   0  0  0  0  0  0  0  0  0  0  0  0
   -0.8653    0.7508    0.0000 C   0  0  0  0  0  0  0  0  0  0  0  0
    0.6195    0.9637    0.0000 C   0  0  0  0  0  0  0  0  0  0  0  0
    1.5463   -0.2158    0.0000 C   0  0  0  0  0  0  0  0  0  0  0  0
    0.9882   -1.6081    0.0000 C   0  0  0  0  0  0  0  0  0  0  0  0
   -0.4966   -1.8210    0.0000 C   0  0  0  0  0  0  0  0  0  0  0  0
    3.0311   -0.0029    0.0000 C   0  0  0  0  0  0  0  0  0  0  0  0
    3.9578   -1.1824    0.0000 C   0  0  0  0  0  0  0  0  0  0  0  0
    5.4427   -0.9695    0.0000 C   0  0  0  0  0  0  0  0  0  0  0  0
    6.0007    0.4228    0.0000 C   0  0  0  0  0  0  0  0  0  0  0  0
    5.0740    1.6023    0.0000 N   0  0  0  0  0  0  0  0  0  0  0  0
    3.5891    1.3894    0.0000 C   0  0  0  0  0  0  0  0  0  0  0  0
   -5.3198    0.1122    0.0000 C   0  0  0  0  0  0  0  0  0  0  0  0
   -5.8778   -1.2801    0.0000 O   0  0  0  0  0  0  0  0  0  0  0  0
   -6.2465    1.2917    0.0000 O   0  0  0  0  0  0  0  0  0  0  0  0
  2  1  1  6
  2  3  1  0
  3  4  1  0
  4  5  1  0
  5  6  2  0
  6  7  1  0
  7  8  2  0
  8  9  1  0
  7 10  1  0
 10 11  2  0
 11 12  1  0
 12 13  2  0
 13 14  1  0
 14 15  2  0
  2 16  1  0
 16 17  2  0
 16 18  1  0
  9  4  2  0
 15 10  1  0
M  END
>  <rName>  (980) 
D-Phe_pyrid3yl

>  <PQ_SYMBOL>  (980) 
D-Phe_pyrid3yl

>  <FULL_NAME>  (980) 
4-(3-Pyridinyl)-D-Phenylalanine

>  <IUPAC_CONDENSED>  (980) 
D-Phe(pyrid-3-yl)

>  <IUPAC>  (980) 
(2R)-2-amino-3-(4-(pyridin-3-yl)phenyl)propanoic acid

>  <TYPE>  (980) 
Backbone

>  <CLASS>  (980) 
alpha

>  <ANALOG>  (980) 
Phe

>  <MOL_WT>  (980) 
242.278

>  <LOGP>  (980) 
1.703

>  <TPSA>  (980) 
76.21

>  <POPULARITY>  (980) 
3.7

>  <PROTECTED>  (980) 
TRUE

>  <SMILES>  (980) 
N[C@H](Cc1(ccc(cc1)c2(cccnc2)))C(=O)O

>  <INCHIKEY>  (980) 
HWAKOCNTLFYOFR-CYBMUJFWSA-N

$$$$
D-Phe_25diF
     RDKit          2D

 14 14  0  0  0  0  0  0  0  0999 V2000
   -1.4552    1.7882    0.0000 N   0  0  0  0  0  0  0  0  0  0  0  0
   -1.9325    0.3661    0.0000 C   0  0  0  0  0  0  0  0  0  0  0  0
   -0.9397   -0.7583    0.0000 C   0  0  0  0  0  0  0  0  0  0  0  0
    0.5305   -0.4606    0.0000 C   0  0  0  0  0  0  0  0  0  0  0  0
    1.0078    0.9614    0.0000 C   0  0  0  0  0  0  0  0  0  0  0  0
    2.4780    1.2591    0.0000 C   0  0  0  0  0  0  0  0  0  0  0  0
    2.9553    2.6811    0.0000 F   0  0  0  0  0  0  0  0  0  0  0  0
    3.4709    0.1347    0.0000 C   0  0  0  0  0  0  0  0  0  0  0  0
    2.9935   -1.2874    0.0000 C   0  0  0  0  0  0  0  0  0  0  0  0
    1.5234   -1.5850    0.0000 C   0  0  0  0  0  0  0  0  0  0  0  0
    1.0461   -3.0070    0.0000 F   0  0  0  0  0  0  0  0  0  0  0  0
   -3.4027    0.0685    0.0000 C   0  0  0  0  0  0  0  0  0  0  0  0
   -3.8800   -1.3536    0.0000 O   0  0  0  0  0  0  0  0  0  0  0  0
   -4.3955    1.1929    0.0000 O   0  0  0  0  0  0  0  0  0  0  0  0
  2  1  1  6
  2  3  1  0
  3  4  1  0
  4  5  1  0
  5  6  2  0
  6  7  1  0
  6  8  1  0
  8  9  2  0
  9 10  1  0
 10 11  1  0
  2 12  1  0
 12 13  2  0
 12 14  1  0
 10  4  2  0
M  END
>  <rName>  (981) 
D-Phe_25diF

>  <PQ_SYMBOL>  (981) 
D-Phe_25diF

>  <FULL_NAME>  (981) 
2,5-Difluoro-D-Phenylalanine

>  <IUPAC_CONDENSED>  (981) 
D-Phe(2,5-diF)

>  <IUPAC>  (981) 
(2R)-2-amino-3-(2,5-difluorophenyl)propanoic acid

>  <TYPE>  (981) 
Backbone

>  <CLASS>  (981) 
alpha

>  <ANALOG>  (981) 
Phe

>  <MOL_WT>  (981) 
201.17199999999997

>  <LOGP>  (981) 
0.9192

>  <TPSA>  (981) 
63.32000000000001

>  <POPULARITY>  (981) 
4.6

>  <PROTECTED>  (981) 
TRUE

>  <SMILES>  (981) 
N[C@H](Cc1(cc(F)ccc1F))C(=O)O

>  <INCHIKEY>  (981) 
YHYQITHAFYELNW-MRVPVSSYSA-N

$$$$
D-Phe_35diF
     RDKit          2D

 14 14  0  0  0  0  0  0  0  0999 V2000
   -1.8014    1.6047    0.0000 N   0  0  0  0  0  0  0  0  0  0  0  0
   -2.1617    0.1486    0.0000 C   0  0  0  0  0  0  0  0  0  0  0  0
   -1.0809   -0.8915    0.0000 C   0  0  0  0  0  0  0  0  0  0  0  0
    0.3603   -0.4755    0.0000 C   0  0  0  0  0  0  0  0  0  0  0  0
    0.7206    0.9806    0.0000 C   0  0  0  0  0  0  0  0  0  0  0  0
    2.1617    1.3967    0.0000 C   0  0  0  0  0  0  0  0  0  0  0  0
    2.5220    2.8527    0.0000 F   0  0  0  0  0  0  0  0  0  0  0  0
    3.2426    0.3566    0.0000 C   0  0  0  0  0  0  0  0  0  0  0  0
    2.8823   -1.0995    0.0000 C   0  0  0  0  0  0  0  0  0  0  0  0
    3.9632   -2.1396    0.0000 F   0  0  0  0  0  0  0  0  0  0  0  0
    1.4412   -1.5155    0.0000 C   0  0  0  0  0  0  0  0  0  0  0  0
   -3.6029   -0.2674    0.0000 C   0  0  0  0  0  0  0  0  0  0  0  0
   -3.9632   -1.7235    0.0000 O   0  0  0  0  0  0  0  0  0  0  0  0
   -4.6837    0.7726    0.0000 O   0  0  0  0  0  0  0  0  0  0  0  0
  2  1  1  6
  2  3  1  0
  3  4  1  0
  4  5  2  0
  5  6  1  0
  6  7  1  0
  6  8  2  0
  8  9  1  0
  9 10  1  0
  9 11  2  0
  2 12  1  0
 12 13  2  0
 12 14  1  0
 11  4  1  0
M  END
>  <rName>  (982) 
D-Phe_35diF

>  <PQ_SYMBOL>  (982) 
D-Phe_35diF

>  <FULL_NAME>  (982) 
3,5-Difluoro-D-Phenylalanine

>  <IUPAC_CONDENSED>  (982) 
D-Phe(3,5-diF)

>  <IUPAC>  (982) 
(2R)-2-amino-3-(3,5-difluorophenyl)propanoic acid

>  <TYPE>  (982) 
Backbone

>  <CLASS>  (982) 
alpha

>  <ANALOG>  (982) 
Phe

>  <MOL_WT>  (982) 
201.17199999999997

>  <LOGP>  (982) 
0.9192

>  <TPSA>  (982) 
63.32000000000001

>  <POPULARITY>  (982) 
7.2

>  <PROTECTED>  (982) 
TRUE

>  <SMILES>  (982) 
N[C@H](Cc1(cc(F)cc(F)c1))C(=O)O

>  <INCHIKEY>  (982) 
QFGMPXZFCIHYIR-MRVPVSSYSA-N

$$$$
D-Phe_26diF
     RDKit          2D

 14 14  0  0  0  0  0  0  0  0999 V2000
   -1.4856    1.6416    0.0000 N   0  0  0  0  0  0  0  0  0  0  0  0
   -1.7624    0.1673    0.0000 C   0  0  0  0  0  0  0  0  0  0  0  0
   -0.6240   -0.8095    0.0000 C   0  0  0  0  0  0  0  0  0  0  0  0
    0.7911   -0.3120    0.0000 C   0  0  0  0  0  0  0  0  0  0  0  0
    1.0678    1.1622    0.0000 C   0  0  0  0  0  0  0  0  0  0  0  0
   -0.0705    2.1390    0.0000 F   0  0  0  0  0  0  0  0  0  0  0  0
    2.4830    1.6597    0.0000 C   0  0  0  0  0  0  0  0  0  0  0  0
    3.6213    0.6829    0.0000 C   0  0  0  0  0  0  0  0  0  0  0  0
    3.3446   -0.7913    0.0000 C   0  0  0  0  0  0  0  0  0  0  0  0
    1.9295   -1.2888    0.0000 C   0  0  0  0  0  0  0  0  0  0  0  0
    1.6527   -2.7631    0.0000 F   0  0  0  0  0  0  0  0  0  0  0  0
   -3.1775   -0.3302    0.0000 C   0  0  0  0  0  0  0  0  0  0  0  0
   -3.4542   -1.8044    0.0000 O   0  0  0  0  0  0  0  0  0  0  0  0
   -4.3158    0.6466    0.0000 O   0  0  0  0  0  0  0  0  0  0  0  0
  2  1  1  6
  2  3  1  0
  3  4  1  0
  4  5  2  0
  5  6  1  0
  5  7  1  0
  7  8  2  0
  8  9  1  0
  9 10  2  0
 10 11  1  0
  2 12  1  0
 12 13  2  0
 12 14  1  0
 10  4  1  0
M  END
>  <rName>  (983) 
D-Phe_26diF

>  <PQ_SYMBOL>  (983) 
D-Phe_26diF

>  <FULL_NAME>  (983) 
2,6-Difluoro-D-Phenylalanine

>  <IUPAC_CONDENSED>  (983) 
D-Phe(2,6-diF)

>  <IUPAC>  (983) 
(2R)-2-amino-3-(2,6-difluorophenyl)propanoic acid

>  <TYPE>  (983) 
Backbone

>  <CLASS>  (983) 
alpha

>  <ANALOG>  (983) 
Phe

>  <MOL_WT>  (983) 
201.17199999999997

>  <LOGP>  (983) 
0.9192

>  <TPSA>  (983) 
63.32000000000001

>  <POPULARITY>  (983) 
4.9

>  <PROTECTED>  (983) 
TRUE

>  <SMILES>  (983) 
N[C@H](Cc1(c(F)cccc1F))C(=O)O

>  <INCHIKEY>  (983) 
RFOVYDPRGDZBLJ-MRVPVSSYSA-N

$$$$
Trp_7Br
     RDKit          2D

 16 17  0  0  0  0  0  0  0  0999 V2000
   -2.8116   -1.7751    0.0000 N   0  0  0  0  0  0  0  0  0  0  0  0
   -2.8520   -0.2757    0.0000 C   0  0  0  0  0  0  0  0  0  0  0  0
   -1.5737    0.5091    0.0000 C   0  0  0  0  0  0  0  0  0  0  0  0
   -0.2549   -0.2056    0.0000 C   0  0  0  0  0  0  0  0  0  0  0  0
   -0.0579   -1.6926    0.0000 C   0  0  0  0  0  0  0  0  0  0  0  0
    1.4172   -1.9648    0.0000 N   0  0  0  0  0  0  0  0  0  0  0  0
    2.1319   -0.6460    0.0000 C   0  0  0  0  0  0  0  0  0  0  0  0
    3.5902   -0.2947    0.0000 C   0  0  0  0  0  0  0  0  0  0  0  0
    4.6235   -1.3820    0.0000 Br  0  0  0  0  0  0  0  0  0  0  0  0
    4.0150    1.1438    0.0000 C   0  0  0  0  0  0  0  0  0  0  0  0
    2.9816    2.2311    0.0000 C   0  0  0  0  0  0  0  0  0  0  0  0
    1.5234    1.8798    0.0000 C   0  0  0  0  0  0  0  0  0  0  0  0
    1.0985    0.4412    0.0000 C   0  0  0  0  0  0  0  0  0  0  0  0
   -4.1708    0.4390    0.0000 C   0  0  0  0  0  0  0  0  0  0  0  0
   -4.2113    1.9385    0.0000 O   0  0  0  0  0  0  0  0  0  0  0  0
   -5.4491   -0.3458    0.0000 O   0  0  0  0  0  0  0  0  0  0  0  0
  2  1  1  6
  2  3  1  0
  3  4  1  0
  4  5  2  0
  5  6  1  0
  6  7  1  0
  7  8  2  0
  8  9  1  0
  8 10  1  0
 10 11  2  0
 11 12  1  0
 12 13  2  0
  2 14  1  0
 14 15  2  0
 14 16  1  0
 13  7  1  0
 13  4  1  0
M  END
>  <rName>  (984) 
Trp_7Br

>  <PQ_SYMBOL>  (984) 
Trp_7Br

>  <FULL_NAME>  (984) 
7-Bromo-L-Tryptophan

>  <IUPAC_CONDENSED>  (984) 
Trp(7-Br)

>  <IUPAC>  (984) 
(2S)-2-amino-3-(7-bromo-1H-indol-3-yl)propanoic acid

>  <TYPE>  (984) 
Backbone

>  <CLASS>  (984) 
alpha

>  <ANALOG>  (984) 
Trp

>  <MOL_WT>  (984) 
283.125

>  <LOGP>  (984) 
1.8848

>  <TPSA>  (984) 
79.11

>  <POPULARITY>  (984) 
5.7

>  <PROTECTED>  (984) 
TRUE

>  <SMILES>  (984) 
N[C@@H](Cc2(c[nH]c1(c(Br)cccc12)))C(=O)O

>  <INCHIKEY>  (984) 
VMMOOBBCGTVDGP-VIFPVBQESA-N

$$$$
D-Phe_3MeNH2
     RDKit          2D

 14 14  0  0  0  0  0  0  0  0999 V2000
   -2.2742    1.6194    0.0000 N   0  0  0  0  0  0  0  0  0  0  0  0
   -2.3172    0.1200    0.0000 C   0  0  0  0  0  0  0  0  0  0  0  0
   -1.0402   -0.6669    0.0000 C   0  0  0  0  0  0  0  0  0  0  0  0
    0.2798    0.0456    0.0000 C   0  0  0  0  0  0  0  0  0  0  0  0
    0.3228    1.5450    0.0000 C   0  0  0  0  0  0  0  0  0  0  0  0
    1.6428    2.2574    0.0000 C   0  0  0  0  0  0  0  0  0  0  0  0
    2.9198    1.4705    0.0000 C   0  0  0  0  0  0  0  0  0  0  0  0
    2.8768   -0.0289    0.0000 C   0  0  0  0  0  0  0  0  0  0  0  0
    1.5568   -0.7414    0.0000 C   0  0  0  0  0  0  0  0  0  0  0  0
    4.1538   -0.8158    0.0000 C   0  0  0  0  0  0  0  0  0  0  0  0
    4.1108   -2.3152    0.0000 N   0  0  0  0  0  0  0  0  0  0  0  0
   -3.6372   -0.5924    0.0000 C   0  0  0  0  0  0  0  0  0  0  0  0
   -3.6802   -2.0918    0.0000 O   0  0  0  0  0  0  0  0  0  0  0  0
   -4.9142    0.1945    0.0000 O   0  0  0  0  0  0  0  0  0  0  0  0
  2  1  1  6
  2  3  1  0
  3  4  1  0
  4  5  2  0
  5  6  1  0
  6  7  2  0
  7  8  1  0
  8  9  2  0
  8 10  1  0
 10 11  1  0
  2 12  1  0
 12 13  2  0
 12 14  1  0
  9  4  1  0
M  END
>  <rName>  (985) 
D-Phe_3MeNH2

>  <PQ_SYMBOL>  (985) 
D-Phe_3MeNH2

>  <FULL_NAME>  (985) 
3-Aminomethyl-D-Phenylalanine

>  <IUPAC_CONDENSED>  (985) 
D-Phe(3-MeNH2)

>  <IUPAC>  (985) 
(2R)-2-amino-3-(3-(aminomethyl)phenyl)propanoic acid

>  <TYPE>  (985) 
Backbone

>  <CLASS>  (985) 
alpha

>  <ANALOG>  (985) 
Phe

>  <MOL_WT>  (985) 
194.23399999999995

>  <LOGP>  (985) 
0.09970000000000018

>  <TPSA>  (985) 
89.34

>  <POPULARITY>  (985) 
7

>  <PROTECTED>  (985) 
TRUE

>  <SMILES>  (985) 
N[C@H](Cc1(cccc(c1)CN))C(=O)O

>  <INCHIKEY>  (985) 
YBVDQQQEPCEKPR-SECBINFHSA-N

$$$$
D-Phe_4MeNH2
     RDKit          2D

 14 14  0  0  0  0  0  0  0  0999 V2000
   -2.0397    1.6757    0.0000 N   0  0  0  0  0  0  0  0  0  0  0  0
   -2.4395    0.2299    0.0000 C   0  0  0  0  0  0  0  0  0  0  0  0
   -1.3873   -0.8392    0.0000 C   0  0  0  0  0  0  0  0  0  0  0  0
    0.0646   -0.4625    0.0000 C   0  0  0  0  0  0  0  0  0  0  0  0
    0.4644    0.9832    0.0000 C   0  0  0  0  0  0  0  0  0  0  0  0
    1.9164    1.3598    0.0000 C   0  0  0  0  0  0  0  0  0  0  0  0
    2.9685    0.2907    0.0000 C   0  0  0  0  0  0  0  0  0  0  0  0
    2.5687   -1.1550    0.0000 C   0  0  0  0  0  0  0  0  0  0  0  0
    1.1168   -1.5316    0.0000 C   0  0  0  0  0  0  0  0  0  0  0  0
    4.4205    0.6674    0.0000 C   0  0  0  0  0  0  0  0  0  0  0  0
    5.4726   -0.4017    0.0000 N   0  0  0  0  0  0  0  0  0  0  0  0
   -3.8914   -0.1467    0.0000 C   0  0  0  0  0  0  0  0  0  0  0  0
   -4.2912   -1.5924    0.0000 O   0  0  0  0  0  0  0  0  0  0  0  0
   -4.9436    0.9224    0.0000 O   0  0  0  0  0  0  0  0  0  0  0  0
  2  1  1  6
  2  3  1  0
  3  4  1  0
  4  5  1  0
  5  6  2  0
  6  7  1  0
  7  8  2  0
  8  9  1  0
  7 10  1  0
 10 11  1  0
  2 12  1  0
 12 13  2  0
 12 14  1  0
  9  4  2  0
M  END
>  <rName>  (986) 
D-Phe_4MeNH2

>  <PQ_SYMBOL>  (986) 
D-Phe_4MeNH2

>  <FULL_NAME>  (986) 
4-Aminomethyl-D-Phenylalanine

>  <IUPAC_CONDENSED>  (986) 
D-Phe(4-MeNH2)

>  <IUPAC>  (986) 
(2R)-2-amino-3-(4-(aminomethyl)phenyl)propanoic acid

>  <TYPE>  (986) 
Backbone

>  <CLASS>  (986) 
alpha

>  <ANALOG>  (986) 
Phe

>  <MOL_WT>  (986) 
194.23399999999995

>  <LOGP>  (986) 
0.09970000000000018

>  <TPSA>  (986) 
89.34

>  <POPULARITY>  (986) 
8.3

>  <PROTECTED>  (986) 
TRUE

>  <SMILES>  (986) 
N[C@H](Cc1(ccc(cc1)CN))C(=O)O

>  <INCHIKEY>  (986) 
GNVNKFUEUXUWDV-SECBINFHSA-N

$$$$
D-Phe_23diCl
     RDKit          2D

 14 14  0  0  0  0  0  0  0  0999 V2000
   -1.9599    1.7683    0.0000 N   0  0  0  0  0  0  0  0  0  0  0  0
   -2.1168    0.2766    0.0000 C   0  0  0  0  0  0  0  0  0  0  0  0
   -0.9034   -0.6052    0.0000 C   0  0  0  0  0  0  0  0  0  0  0  0
    0.4670    0.0047    0.0000 C   0  0  0  0  0  0  0  0  0  0  0  0
    0.6239    1.4965    0.0000 C   0  0  0  0  0  0  0  0  0  0  0  0
    1.9943    2.1065    0.0000 C   0  0  0  0  0  0  0  0  0  0  0  0
    3.2078    1.2247    0.0000 C   0  0  0  0  0  0  0  0  0  0  0  0
    3.0508   -0.2671    0.0000 C   0  0  0  0  0  0  0  0  0  0  0  0
    4.2643   -1.1489    0.0000 Cl  0  0  0  0  0  0  0  0  0  0  0  0
    1.6804   -0.8771    0.0000 C   0  0  0  0  0  0  0  0  0  0  0  0
    1.5235   -2.3688    0.0000 Cl  0  0  0  0  0  0  0  0  0  0  0  0
   -3.4872   -0.3334    0.0000 C   0  0  0  0  0  0  0  0  0  0  0  0
   -3.6441   -1.8252    0.0000 O   0  0  0  0  0  0  0  0  0  0  0  0
   -4.7006    0.5484    0.0000 O   0  0  0  0  0  0  0  0  0  0  0  0
  2  1  1  6
  2  3  1  0
  3  4  1  0
  4  5  2  0
  5  6  1  0
  6  7  2  0
  7  8  1  0
  8  9  1  0
  8 10  2  0
 10 11  1  0
  2 12  1  0
 12 13  2  0
 12 14  1  0
 10  4  1  0
M  END
>  <rName>  (987) 
D-Phe_23diCl

>  <PQ_SYMBOL>  (987) 
D-Phe_23diCl

>  <FULL_NAME>  (987) 
2,3-Dichloro-D-Phenylalanine

>  <IUPAC_CONDENSED>  (987) 
D-Phe(2,3-diCl)

>  <IUPAC>  (987) 
(2R)-2-amino-3-(2,3-dichlorophenyl)propanoic acid

>  <TYPE>  (987) 
Backbone

>  <CLASS>  (987) 
alpha

>  <ANALOG>  (987) 
Phe

>  <MOL_WT>  (987) 
234.08199999999997

>  <LOGP>  (987) 
1.9478000000000002

>  <TPSA>  (987) 
63.32000000000001

>  <POPULARITY>  (987) 
4.5

>  <PROTECTED>  (987) 
TRUE

>  <SMILES>  (987) 
N[C@H](Cc1(cccc(Cl)c1Cl))C(=O)O

>  <INCHIKEY>  (987) 
NVDAAIHKUHFKOL-SSDOTTSWSA-N

$$$$
D-Phe_25diCl
     RDKit          2D

 14 14  0  0  0  0  0  0  0  0999 V2000
   -1.4552    1.7882    0.0000 N   0  0  0  0  0  0  0  0  0  0  0  0
   -1.9325    0.3661    0.0000 C   0  0  0  0  0  0  0  0  0  0  0  0
   -0.9397   -0.7583    0.0000 C   0  0  0  0  0  0  0  0  0  0  0  0
    0.5305   -0.4606    0.0000 C   0  0  0  0  0  0  0  0  0  0  0  0
    1.0078    0.9614    0.0000 C   0  0  0  0  0  0  0  0  0  0  0  0
    2.4780    1.2591    0.0000 C   0  0  0  0  0  0  0  0  0  0  0  0
    2.9553    2.6811    0.0000 Cl  0  0  0  0  0  0  0  0  0  0  0  0
    3.4709    0.1347    0.0000 C   0  0  0  0  0  0  0  0  0  0  0  0
    2.9935   -1.2874    0.0000 C   0  0  0  0  0  0  0  0  0  0  0  0
    1.5234   -1.5850    0.0000 C   0  0  0  0  0  0  0  0  0  0  0  0
    1.0461   -3.0070    0.0000 Cl  0  0  0  0  0  0  0  0  0  0  0  0
   -3.4027    0.0685    0.0000 C   0  0  0  0  0  0  0  0  0  0  0  0
   -3.8800   -1.3536    0.0000 O   0  0  0  0  0  0  0  0  0  0  0  0
   -4.3955    1.1929    0.0000 O   0  0  0  0  0  0  0  0  0  0  0  0
  2  1  1  6
  2  3  1  0
  3  4  1  0
  4  5  1  0
  5  6  2  0
  6  7  1  0
  6  8  1  0
  8  9  2  0
  9 10  1  0
 10 11  1  0
  2 12  1  0
 12 13  2  0
 12 14  1  0
 10  4  2  0
M  END
>  <rName>  (988) 
D-Phe_25diCl

>  <PQ_SYMBOL>  (988) 
D-Phe_25diCl

>  <FULL_NAME>  (988) 
2,5-Dichloro-D-Phenylalanine

>  <IUPAC_CONDENSED>  (988) 
D-Phe(2,5-diCl)

>  <IUPAC>  (988) 
(2R)-2-amino-3-(2,5-dichlorophenyl)propanoic acid

>  <TYPE>  (988) 
Backbone

>  <CLASS>  (988) 
alpha

>  <ANALOG>  (988) 
Phe

>  <MOL_WT>  (988) 
234.082

>  <LOGP>  (988) 
1.9478

>  <TPSA>  (988) 
63.32000000000001

>  <POPULARITY>  (988) 
4.9

>  <PROTECTED>  (988) 
TRUE

>  <SMILES>  (988) 
N[C@H](Cc1(cc(Cl)ccc1Cl))C(=O)O

>  <INCHIKEY>  (988) 
SDKIMTATYJGPBJ-MRVPVSSYSA-N

$$$$
D-Phe_23diF
     RDKit          2D

 14 14  0  0  0  0  0  0  0  0999 V2000
   -1.9599    1.7683    0.0000 N   0  0  0  0  0  0  0  0  0  0  0  0
   -2.1168    0.2766    0.0000 C   0  0  0  0  0  0  0  0  0  0  0  0
   -0.9034   -0.6052    0.0000 C   0  0  0  0  0  0  0  0  0  0  0  0
    0.4670    0.0047    0.0000 C   0  0  0  0  0  0  0  0  0  0  0  0
    0.6239    1.4965    0.0000 C   0  0  0  0  0  0  0  0  0  0  0  0
    1.9943    2.1065    0.0000 C   0  0  0  0  0  0  0  0  0  0  0  0
    3.2078    1.2247    0.0000 C   0  0  0  0  0  0  0  0  0  0  0  0
    3.0508   -0.2671    0.0000 C   0  0  0  0  0  0  0  0  0  0  0  0
    4.2643   -1.1489    0.0000 F   0  0  0  0  0  0  0  0  0  0  0  0
    1.6804   -0.8771    0.0000 C   0  0  0  0  0  0  0  0  0  0  0  0
    1.5235   -2.3688    0.0000 F   0  0  0  0  0  0  0  0  0  0  0  0
   -3.4872   -0.3334    0.0000 C   0  0  0  0  0  0  0  0  0  0  0  0
   -3.6441   -1.8252    0.0000 O   0  0  0  0  0  0  0  0  0  0  0  0
   -4.7006    0.5484    0.0000 O   0  0  0  0  0  0  0  0  0  0  0  0
  2  1  1  6
  2  3  1  0
  3  4  1  0
  4  5  2  0
  5  6  1  0
  6  7  2  0
  7  8  1  0
  8  9  1  0
  8 10  2  0
 10 11  1  0
  2 12  1  0
 12 13  2  0
 12 14  1  0
 10  4  1  0
M  END
>  <rName>  (989) 
D-Phe_23diF

>  <PQ_SYMBOL>  (989) 
D-Phe_23diF

>  <FULL_NAME>  (989) 
2,3-Difluoro-D-Phenylalanine

>  <IUPAC_CONDENSED>  (989) 
D-Phe(2,3-diF)

>  <IUPAC>  (989) 
(2R)-2-amino-3-(2,3-difluorophenyl)propanoic acid

>  <TYPE>  (989) 
Backbone

>  <CLASS>  (989) 
alpha

>  <ANALOG>  (989) 
Phe

>  <MOL_WT>  (989) 
201.17199999999997

>  <LOGP>  (989) 
0.9192

>  <TPSA>  (989) 
63.32000000000001

>  <POPULARITY>  (989) 
5.2

>  <PROTECTED>  (989) 
TRUE

>  <SMILES>  (989) 
N[C@H](Cc1(cccc(F)c1F))C(=O)O

>  <INCHIKEY>  (989) 
KSUXKFDPNKLPHX-SSDOTTSWSA-N

$$$$
D-Phe_3F_4Me
     RDKit          2D

 14 14  0  0  0  0  0  0  0  0999 V2000
   -2.0094    1.6916    0.0000 N   0  0  0  0  0  0  0  0  0  0  0  0
   -2.3243    0.2250    0.0000 C   0  0  0  0  0  0  0  0  0  0  0  0
   -1.2116   -0.7809    0.0000 C   0  0  0  0  0  0  0  0  0  0  0  0
    0.2159   -0.3203    0.0000 C   0  0  0  0  0  0  0  0  0  0  0  0
    0.5308    1.1463    0.0000 C   0  0  0  0  0  0  0  0  0  0  0  0
    1.9583    1.6069    0.0000 C   0  0  0  0  0  0  0  0  0  0  0  0
    3.0710    0.6009    0.0000 C   0  0  0  0  0  0  0  0  0  0  0  0
    4.4985    1.0615    0.0000 C   0  0  0  0  0  0  0  0  0  0  0  0
    2.7561   -0.8657    0.0000 C   0  0  0  0  0  0  0  0  0  0  0  0
    3.8688   -1.8716    0.0000 F   0  0  0  0  0  0  0  0  0  0  0  0
    1.3286   -1.3263    0.0000 C   0  0  0  0  0  0  0  0  0  0  0  0
   -3.7518   -0.2356    0.0000 C   0  0  0  0  0  0  0  0  0  0  0  0
   -4.0666   -1.7022    0.0000 O   0  0  0  0  0  0  0  0  0  0  0  0
   -4.8644    0.7704    0.0000 O   0  0  0  0  0  0  0  0  0  0  0  0
  2  1  1  6
  2  3  1  0
  3  4  1  0
  4  5  1  0
  5  6  2  0
  6  7  1  0
  7  8  1  0
  7  9  2  0
  9 10  1  0
  9 11  1  0
  2 12  1  0
 12 13  2  0
 12 14  1  0
 11  4  2  0
M  END
>  <rName>  (990) 
D-Phe_3F_4Me

>  <PQ_SYMBOL>  (990) 
D-Phe_3F_4Me

>  <FULL_NAME>  (990) 
3-Fluoro-4-Methyl-D-Phenylalanine

>  <IUPAC_CONDENSED>  (990) 
D-Phe(3-F,4-Me)

>  <IUPAC>  (990) 
(2R)-2-amino-3-(3-fluoro-4-methylphenyl)propanoic acid

>  <TYPE>  (990) 
Backbone

>  <CLASS>  (990) 
alpha

>  <ANALOG>  (990) 
Phe

>  <MOL_WT>  (990) 
197.20899999999997

>  <LOGP>  (990) 
1.0885200000000002

>  <TPSA>  (990) 
63.32000000000001

>  <POPULARITY>  (990) 
3.9

>  <PROTECTED>  (990) 
TRUE

>  <SMILES>  (990) 
N[C@H](Cc1(ccc(C)c(F)c1))C(=O)O

>  <INCHIKEY>  (990) 
MUTNDIMQYVVGMX-SECBINFHSA-N

$$$$
Trp_4Cl
     RDKit          2D

 16 17  0  0  0  0  0  0  0  0999 V2000
   -2.7276   -1.8081    0.0000 N   0  0  0  0  0  0  0  0  0  0  0  0
   -2.6325   -0.3111    0.0000 C   0  0  0  0  0  0  0  0  0  0  0  0
   -1.2885    0.3550    0.0000 C   0  0  0  0  0  0  0  0  0  0  0  0
   -0.0397   -0.4758    0.0000 C   0  0  0  0  0  0  0  0  0  0  0  0
    0.0222   -1.9745    0.0000 C   0  0  0  0  0  0  0  0  0  0  0  0
    1.4667   -2.3788    0.0000 N   0  0  0  0  0  0  0  0  0  0  0  0
    2.2976   -1.1299    0.0000 C   0  0  0  0  0  0  0  0  0  0  0  0
    3.7816   -0.9117    0.0000 C   0  0  0  0  0  0  0  0  0  0  0  0
    4.3347    0.4826    0.0000 C   0  0  0  0  0  0  0  0  0  0  0  0
    3.4037    1.6587    0.0000 C   0  0  0  0  0  0  0  0  0  0  0  0
    1.9196    1.4405    0.0000 C   0  0  0  0  0  0  0  0  0  0  0  0
    0.9886    2.6166    0.0000 Cl  0  0  0  0  0  0  0  0  0  0  0  0
    1.3666    0.0462    0.0000 C   0  0  0  0  0  0  0  0  0  0  0  0
   -3.8814    0.5198    0.0000 C   0  0  0  0  0  0  0  0  0  0  0  0
   -3.7863    2.0167    0.0000 O   0  0  0  0  0  0  0  0  0  0  0  0
   -5.2254   -0.1464    0.0000 O   0  0  0  0  0  0  0  0  0  0  0  0
  2  1  1  6
  2  3  1  0
  3  4  1  0
  4  5  2  0
  5  6  1  0
  6  7  1  0
  7  8  2  0
  8  9  1  0
  9 10  2  0
 10 11  1  0
 11 12  1  0
 11 13  2  0
  2 14  1  0
 14 15  2  0
 14 16  1  0
 13  4  1  0
 13  7  1  0
M  END
>  <rName>  (991) 
Trp_4Cl

>  <PQ_SYMBOL>  (991) 
Trp_4Cl

>  <FULL_NAME>  (991) 
4-Chloro-L-Tryptophan

>  <IUPAC_CONDENSED>  (991) 
Trp(4-Cl)

>  <IUPAC>  (991) 
(2S)-2-amino-3-(4-chloro-1H-indol-3-yl)propanoic acid

>  <TYPE>  (991) 
Backbone

>  <CLASS>  (991) 
alpha

>  <ANALOG>  (991) 
Trp

>  <MOL_WT>  (991) 
238.67399999999998

>  <LOGP>  (991) 
1.7757000000000003

>  <TPSA>  (991) 
79.11

>  <POPULARITY>  (991) 
9.1

>  <PROTECTED>  (991) 
TRUE

>  <SMILES>  (991) 
N[C@@H](Cc1(c[nH]c2(cccc(Cl)c12)))C(=O)O

>  <INCHIKEY>  (991) 
NRTHKYABOMUPSC-QMMMGPOBSA-N

$$$$
Trp_5Br
     RDKit          2D

 16 17  0  0  0  0  0  0  0  0999 V2000
   -3.0564   -1.5854    0.0000 N   0  0  0  0  0  0  0  0  0  0  0  0
   -2.8364   -0.1016    0.0000 C   0  0  0  0  0  0  0  0  0  0  0  0
   -1.4415    0.4499    0.0000 C   0  0  0  0  0  0  0  0  0  0  0  0
   -0.2664   -0.4825    0.0000 C   0  0  0  0  0  0  0  0  0  0  0  0
   -0.3301   -1.9811    0.0000 C   0  0  0  0  0  0  0  0  0  0  0  0
    1.0756   -2.5048    0.0000 N   0  0  0  0  0  0  0  0  0  0  0  0
    2.0079   -1.3297    0.0000 C   0  0  0  0  0  0  0  0  0  0  0  0
    3.5050   -1.2364    0.0000 C   0  0  0  0  0  0  0  0  0  0  0  0
    4.1727    0.1068    0.0000 C   0  0  0  0  0  0  0  0  0  0  0  0
    3.3433    1.3567    0.0000 C   0  0  0  0  0  0  0  0  0  0  0  0
    4.0110    2.6999    0.0000 Br  0  0  0  0  0  0  0  0  0  0  0  0
    1.8462    1.2633    0.0000 C   0  0  0  0  0  0  0  0  0  0  0  0
    1.1785   -0.0799    0.0000 C   0  0  0  0  0  0  0  0  0  0  0  0
   -4.0115    0.8308    0.0000 C   0  0  0  0  0  0  0  0  0  0  0  0
   -3.7915    2.3146    0.0000 O   0  0  0  0  0  0  0  0  0  0  0  0
   -5.4064    0.2794    0.0000 O   0  0  0  0  0  0  0  0  0  0  0  0
  2  1  1  6
  2  3  1  0
  3  4  1  0
  4  5  2  0
  5  6  1  0
  6  7  1  0
  7  8  1  0
  8  9  2  0
  9 10  1  0
 10 11  1  0
 10 12  2  0
 12 13  1  0
  2 14  1  0
 14 15  2  0
 14 16  1  0
 13  4  1  0
 13  7  2  0
M  END
>  <rName>  (992) 
Trp_5Br

>  <PQ_SYMBOL>  (992) 
Trp_5Br

>  <FULL_NAME>  (992) 
5-Bromo-L-Tryptophan

>  <IUPAC_CONDENSED>  (992) 
Trp(5-Br)

>  <IUPAC>  (992) 
(2S)-2-amino-3-(5-bromo-1H-indol-3-yl)propanoic acid

>  <TYPE>  (992) 
Backbone

>  <CLASS>  (992) 
alpha

>  <ANALOG>  (992) 
Trp

>  <MOL_WT>  (992) 
283.125

>  <LOGP>  (992) 
1.8848000000000003

>  <TPSA>  (992) 
79.11

>  <POPULARITY>  (992) 
7

>  <PROTECTED>  (992) 
TRUE

>  <SMILES>  (992) 
N[C@@H](Cc1(c[nH]c2(ccc(Br)cc12)))C(=O)O

>  <INCHIKEY>  (992) 
KZDNJQUJBMDHJW-VIFPVBQESA-N

$$$$
Trp_4Br
     RDKit          2D

 16 17  0  0  0  0  0  0  0  0999 V2000
   -2.7276   -1.8081    0.0000 N   0  0  0  0  0  0  0  0  0  0  0  0
   -2.6325   -0.3111    0.0000 C   0  0  0  0  0  0  0  0  0  0  0  0
   -1.2885    0.3550    0.0000 C   0  0  0  0  0  0  0  0  0  0  0  0
   -0.0397   -0.4758    0.0000 C   0  0  0  0  0  0  0  0  0  0  0  0
    0.0222   -1.9745    0.0000 C   0  0  0  0  0  0  0  0  0  0  0  0
    1.4667   -2.3788    0.0000 N   0  0  0  0  0  0  0  0  0  0  0  0
    2.2976   -1.1299    0.0000 C   0  0  0  0  0  0  0  0  0  0  0  0
    3.7816   -0.9117    0.0000 C   0  0  0  0  0  0  0  0  0  0  0  0
    4.3347    0.4826    0.0000 C   0  0  0  0  0  0  0  0  0  0  0  0
    3.4037    1.6587    0.0000 C   0  0  0  0  0  0  0  0  0  0  0  0
    1.9196    1.4405    0.0000 C   0  0  0  0  0  0  0  0  0  0  0  0
    0.9886    2.6166    0.0000 Br  0  0  0  0  0  0  0  0  0  0  0  0
    1.3666    0.0462    0.0000 C   0  0  0  0  0  0  0  0  0  0  0  0
   -3.8814    0.5198    0.0000 C   0  0  0  0  0  0  0  0  0  0  0  0
   -3.7863    2.0167    0.0000 O   0  0  0  0  0  0  0  0  0  0  0  0
   -5.2254   -0.1464    0.0000 O   0  0  0  0  0  0  0  0  0  0  0  0
  2  1  1  6
  2  3  1  0
  3  4  1  0
  4  5  2  0
  5  6  1  0
  6  7  1  0
  7  8  2  0
  8  9  1  0
  9 10  2  0
 10 11  1  0
 11 12  1  0
 11 13  2  0
  2 14  1  0
 14 15  2  0
 14 16  1  0
 13  4  1  0
 13  7  1  0
M  END
>  <rName>  (993) 
Trp_4Br

>  <PQ_SYMBOL>  (993) 
Trp_4Br

>  <FULL_NAME>  (993) 
4-Bromo-L-Tryptophan

>  <IUPAC_CONDENSED>  (993) 
Trp(4-Br)

>  <IUPAC>  (993) 
(2S)-2-amino-3-(4-bromo-1H-indol-3-yl)propanoic acid

>  <TYPE>  (993) 
Backbone

>  <CLASS>  (993) 
alpha

>  <ANALOG>  (993) 
Trp

>  <MOL_WT>  (993) 
283.125

>  <LOGP>  (993) 
1.8848000000000003

>  <TPSA>  (993) 
79.11

>  <POPULARITY>  (993) 
4.3

>  <PROTECTED>  (993) 
TRUE

>  <SMILES>  (993) 
N[C@@H](Cc1(c[nH]c2(cccc(Br)c12)))C(=O)O

>  <INCHIKEY>  (993) 
OFKIVYVSESEHFZ-QMMMGPOBSA-N

$$$$
Trp_4Me
     RDKit          2D

 16 17  0  0  0  0  0  0  0  0999 V2000
   -2.7276   -1.8081    0.0000 N   0  0  0  0  0  0  0  0  0  0  0  0
   -2.6325   -0.3111    0.0000 C   0  0  0  0  0  0  0  0  0  0  0  0
   -1.2885    0.3550    0.0000 C   0  0  0  0  0  0  0  0  0  0  0  0
   -0.0397   -0.4758    0.0000 C   0  0  0  0  0  0  0  0  0  0  0  0
    0.0222   -1.9745    0.0000 C   0  0  0  0  0  0  0  0  0  0  0  0
    1.4667   -2.3788    0.0000 N   0  0  0  0  0  0  0  0  0  0  0  0
    2.2976   -1.1299    0.0000 C   0  0  0  0  0  0  0  0  0  0  0  0
    3.7816   -0.9117    0.0000 C   0  0  0  0  0  0  0  0  0  0  0  0
    4.3347    0.4826    0.0000 C   0  0  0  0  0  0  0  0  0  0  0  0
    3.4037    1.6587    0.0000 C   0  0  0  0  0  0  0  0  0  0  0  0
    1.9196    1.4405    0.0000 C   0  0  0  0  0  0  0  0  0  0  0  0
    0.9886    2.6166    0.0000 C   0  0  0  0  0  0  0  0  0  0  0  0
    1.3666    0.0462    0.0000 C   0  0  0  0  0  0  0  0  0  0  0  0
   -3.8814    0.5198    0.0000 C   0  0  0  0  0  0  0  0  0  0  0  0
   -3.7863    2.0167    0.0000 O   0  0  0  0  0  0  0  0  0  0  0  0
   -5.2254   -0.1464    0.0000 O   0  0  0  0  0  0  0  0  0  0  0  0
  2  1  1  6
  2  3  1  0
  3  4  1  0
  4  5  2  0
  5  6  1  0
  6  7  1  0
  7  8  2  0
  8  9  1  0
  9 10  2  0
 10 11  1  0
 11 12  1  0
 11 13  2  0
  2 14  1  0
 14 15  2  0
 14 16  1  0
 13  4  1  0
 13  7  1  0
M  END
>  <rName>  (994) 
Trp_4Me

>  <PQ_SYMBOL>  (994) 
Trp_4Me

>  <FULL_NAME>  (994) 
4-Methyl-L-Tryptophan

>  <IUPAC_CONDENSED>  (994) 
Trp(4-Me)

>  <IUPAC>  (994) 
(2S)-2-amino-3-(4-methyl-1H-indol-3-yl)propanoic acid

>  <TYPE>  (994) 
Backbone

>  <CLASS>  (994) 
alpha

>  <ANALOG>  (994) 
Trp

>  <MOL_WT>  (994) 
218.25599999999997

>  <LOGP>  (994) 
1.4307200000000002

>  <TPSA>  (994) 
79.11

>  <POPULARITY>  (994) 
6.6

>  <PROTECTED>  (994) 
TRUE

>  <SMILES>  (994) 
N[C@@H](Cc1(c[nH]c2(cccc(C)c12)))C(=O)O

>  <INCHIKEY>  (994) 
FPJGLSZLQLNZIW-VIFPVBQESA-N

$$$$
Trp_7Aza
     RDKit          2D

 15 16  0  0  0  0  0  0  0  0999 V2000
   -2.6183   -1.7023    0.0000 N   0  0  0  0  0  0  0  0  0  0  0  0
   -2.5622   -0.2034    0.0000 C   0  0  0  0  0  0  0  0  0  0  0  0
   -1.2360    0.4975    0.0000 C   0  0  0  0  0  0  0  0  0  0  0  0
    0.0341   -0.3006    0.0000 C   0  0  0  0  0  0  0  0  0  0  0  0
    0.1349   -1.7972    0.0000 C   0  0  0  0  0  0  0  0  0  0  0  0
    1.5895   -2.1637    0.0000 N   0  0  0  0  0  0  0  0  0  0  0  0
    2.3875   -0.8937    0.0000 C   0  0  0  0  0  0  0  0  0  0  0  0
    3.8654   -0.6369    0.0000 N   0  0  0  0  0  0  0  0  0  0  0  0
    4.3820    0.7713    0.0000 C   0  0  0  0  0  0  0  0  0  0  0  0
    3.4207    1.9228    0.0000 C   0  0  0  0  0  0  0  0  0  0  0  0
    1.9429    1.6661    0.0000 C   0  0  0  0  0  0  0  0  0  0  0  0
    1.4263    0.2578    0.0000 C   0  0  0  0  0  0  0  0  0  0  0  0
   -3.8322    0.5947    0.0000 C   0  0  0  0  0  0  0  0  0  0  0  0
   -3.7761    2.0937    0.0000 O   0  0  0  0  0  0  0  0  0  0  0  0
   -5.1584   -0.1061    0.0000 O   0  0  0  0  0  0  0  0  0  0  0  0
  2  1  1  6
  2  3  1  0
  3  4  1  0
  4  5  2  0
  5  6  1  0
  6  7  1  0
  7  8  2  0
  8  9  1  0
  9 10  2  0
 10 11  1  0
 11 12  2  0
  2 13  1  0
 13 14  2  0
 13 15  1  0
 12  4  1  0
 12  7  1  0
M  END
>  <rName>  (995) 
Trp_7Aza

>  <PQ_SYMBOL>  (995) 
Trp_7Aza

>  <FULL_NAME>  (995) 
7-Aza-L-Tryptophan

>  <IUPAC_CONDENSED>  (995) 
Trp(7-Aza)

>  <IUPAC>  (995) 
(2S)-2-amino-3-(2,9-diazabicyclo[4.3.0]nona-1,3,5,7-tetraen-7-yl)propanoic acid

>  <TYPE>  (995) 
Backbone

>  <CLASS>  (995) 
alpha

>  <ANALOG>  (995) 
Phe

>  <MOL_WT>  (995) 
205.21699999999998

>  <LOGP>  (995) 
0.5172999999999999

>  <TPSA>  (995) 
92.00000000000001

>  <POPULARITY>  (995) 
14.1

>  <PROTECTED>  (995) 
TRUE

>  <SMILES>  (995) 
N[C@@H](Cc1(c[nH]c2(ncccc12)))C(=O)O

>  <INCHIKEY>  (995) 
SNLOIIPRZGMRAB-QMMMGPOBSA-N

$$$$
NPh4OMeEt-G
     RDKit          2D

 15 15  0  0  0  0  0  0  0  0999 V2000
   -2.9227   -0.3713    0.0000 N   0  0  0  0  0  0  0  0  0  0  0  0
   -1.4913    0.0772    0.0000 C   0  0  0  0  0  0  0  0  0  0  0  0
   -0.3872   -0.9381    0.0000 C   0  0  0  0  0  0  0  0  0  0  0  0
    1.0442   -0.4896    0.0000 C   0  0  0  0  0  0  0  0  0  0  0  0
    1.3714    0.9743    0.0000 C   0  0  0  0  0  0  0  0  0  0  0  0
    2.8028    1.4228    0.0000 C   0  0  0  0  0  0  0  0  0  0  0  0
    3.9069    0.4075    0.0000 C   0  0  0  0  0  0  0  0  0  0  0  0
    5.3383    0.8560    0.0000 O   0  0  0  0  0  0  0  0  0  0  0  0
    6.4424   -0.1593    0.0000 C   0  0  0  0  0  0  0  0  0  0  0  0
    3.5797   -1.0564    0.0000 C   0  0  0  0  0  0  0  0  0  0  0  0
    2.1483   -1.5049    0.0000 C   0  0  0  0  0  0  0  0  0  0  0  0
   -4.0268    0.6440    0.0000 C   0  0  0  0  0  0  0  0  0  0  0  0
   -5.4582    0.1955    0.0000 C   0  0  0  0  0  0  0  0  0  0  0  0
   -5.7854   -1.2684    0.0000 O   0  0  0  0  0  0  0  0  0  0  0  0
   -6.5623    1.2108    0.0000 O   0  0  0  0  0  0  0  0  0  0  0  0
  1  2  1  0
  2  3  1  0
  3  4  1  0
  4  5  1  0
  5  6  2  0
  6  7  1  0
  7  8  1  0
  8  9  1  0
  7 10  2  0
 10 11  1  0
  1 12  1  0
 12 13  1  0
 13 14  2  0
 13 15  1  0
 11  4  2  0
M  END
>  <rName>  (996) 
NPh4OMeEt-G

>  <PQ_SYMBOL>  (996) 
NPh4OMeEt-G

>  <FULL_NAME>  (996) 
2-[2-(4-methoxyphenyl)ethylamino]acetic acid

>  <IUPAC_CONDENSED>  (996) 
Ph(4-OMe)Et-Gly

>  <IUPAC>  (996) 
2-((2-(4-methoxyphenyl)ethyl)amino)acetic acid

>  <TYPE>  (996) 
Backbone

>  <CLASS>  (996) 
alpha

>  <ANALOG>  (996) 
Gly

>  <MOL_WT>  (996) 
209.24499999999998

>  <LOGP>  (996) 
0.9118999999999999

>  <TPSA>  (996) 
58.56

>  <POPULARITY>  (996) 
13.3

>  <PROTECTED>  (996) 
TRUE

>  <SMILES>  (996) 
N(CCc1(ccc(OC)cc1))CC(=O)O

>  <INCHIKEY>  (996) 
GYOOOIWLBRGIME-UHFFFAOYSA-N

$$$$
hLys
     RDKit          2D

 11 10  0  0  0  0  0  0  0  0999 V2000
   -1.9630    1.8884    0.0000 N   0  0  0  0  0  0  0  0  0  0  0  0
   -1.9989    0.3888    0.0000 C   0  0  0  0  0  0  0  0  0  0  0  0
   -0.7181   -0.3920    0.0000 C   0  0  0  0  0  0  0  0  0  0  0  0
    0.5985    0.3267    0.0000 C   0  0  0  0  0  0  0  0  0  0  0  0
    1.8792   -0.4541    0.0000 C   0  0  0  0  0  0  0  0  0  0  0  0
    3.1958    0.2646    0.0000 C   0  0  0  0  0  0  0  0  0  0  0  0
    4.4765   -0.5162    0.0000 C   0  0  0  0  0  0  0  0  0  0  0  0
    5.7931    0.2025    0.0000 N   0  0  0  0  0  0  0  0  0  0  0  0
   -3.3155   -0.3299    0.0000 C   0  0  0  0  0  0  0  0  0  0  0  0
   -3.3513   -1.8295    0.0000 O   0  0  0  0  0  0  0  0  0  0  0  0
   -4.5962    0.4509    0.0000 O   0  0  0  0  0  0  0  0  0  0  0  0
  2  1  1  1
  2  3  1  0
  3  4  1  0
  4  5  1  0
  5  6  1  0
  6  7  1  0
  7  8  1  0
  2  9  1  0
  9 10  2  0
  9 11  1  0
M  END
>  <rName>  (997) 
hLys

>  <PQ_SYMBOL>  (997) 
hLys

>  <FULL_NAME>  (997) 
(2S)-2,7-diaminoheptanoic acid

>  <IUPAC_CONDENSED>  (997) 
hLys

>  <IUPAC>  (997) 
(2S)-2,7-diaminoheptanoic acid

>  <TYPE>  (997) 
Backbone

>  <CLASS>  (997) 
alpha

>  <ANALOG>  (997) 
Lys

>  <MOL_WT>  (997) 
160.217

>  <LOGP>  (997) 
-0.08260000000000067

>  <TPSA>  (997) 
89.34

>  <POPULARITY>  (997) 
15.6

>  <PROTECTED>  (997) 
TRUE

>  <SMILES>  (997) 
N[C@@H](CCCCCN)C(=O)O

>  <INCHIKEY>  (997) 
NMDDZEVVQDPECF-LURJTMIESA-N

$$$$
NPh4OHEt-G
     RDKit          2D

 14 14  0  0  0  0  0  0  0  0999 V2000
   -2.4647   -0.3685    0.0000 N   0  0  0  0  0  0  0  0  0  0  0  0
   -1.0308    0.0718    0.0000 C   0  0  0  0  0  0  0  0  0  0  0  0
    0.0675   -0.9499    0.0000 C   0  0  0  0  0  0  0  0  0  0  0  0
    1.5014   -0.5096    0.0000 C   0  0  0  0  0  0  0  0  0  0  0  0
    1.8371    0.9523    0.0000 C   0  0  0  0  0  0  0  0  0  0  0  0
    3.2710    1.3926    0.0000 C   0  0  0  0  0  0  0  0  0  0  0  0
    4.3693    0.3709    0.0000 C   0  0  0  0  0  0  0  0  0  0  0  0
    5.8032    0.8112    0.0000 O   0  0  0  0  0  0  0  0  0  0  0  0
    4.0336   -1.0911    0.0000 C   0  0  0  0  0  0  0  0  0  0  0  0
    2.5997   -1.5313    0.0000 C   0  0  0  0  0  0  0  0  0  0  0  0
   -3.5629    0.6532    0.0000 C   0  0  0  0  0  0  0  0  0  0  0  0
   -4.9969    0.2129    0.0000 C   0  0  0  0  0  0  0  0  0  0  0  0
   -5.3325   -1.2490    0.0000 O   0  0  0  0  0  0  0  0  0  0  0  0
   -6.0951    1.2346    0.0000 O   0  0  0  0  0  0  0  0  0  0  0  0
  1  2  1  0
  2  3  1  0
  3  4  1  0
  4  5  1  0
  5  6  2  0
  6  7  1  0
  7  8  1  0
  7  9  2  0
  9 10  1  0
  1 11  1  0
 11 12  1  0
 12 13  2  0
 12 14  1  0
 10  4  2  0
M  END
>  <rName>  (998) 
NPh4OHEt-G

>  <PQ_SYMBOL>  (998) 
NPh4OHEt-G

>  <FULL_NAME>  (998) 
2-[2-(4-hydroxyphenyl)ethylamino]acetic acid

>  <IUPAC_CONDENSED>  (998) 
Ph(4-OH)Et-Gly

>  <IUPAC>  (998) 
2-((2-(4-hydroxyphenyl)ethyl)amino)acetic acid

>  <TYPE>  (998) 
Backbone

>  <CLASS>  (998) 
alpha

>  <ANALOG>  (998) 
Gly

>  <MOL_WT>  (998) 
195.21799999999996

>  <LOGP>  (998) 
0.6089

>  <TPSA>  (998) 
69.56

>  <POPULARITY>  (998) 
21.2

>  <PROTECTED>  (998) 
TRUE

>  <SMILES>  (998) 
N(CCc1(ccc(O)cc1))CC(=O)O

>  <INCHIKEY>  (998) 
CNIWLQLCALZLEQ-UHFFFAOYSA-N

$$$$
hArg_Me
     RDKit          2D

 14 13  0  0  0  0  0  0  0  0999 V2000
    3.4434   -1.8746    0.0000 N   0  0  0  0  0  0  0  0  0  0  0  0
    3.5124   -0.3762    0.0000 C   0  0  0  0  0  0  0  0  0  0  0  0
    2.2492    0.4328    0.0000 C   0  0  0  0  0  0  0  0  0  0  0  0
    0.9171   -0.2567    0.0000 C   0  0  0  0  0  0  0  0  0  0  0  0
   -0.3461    0.5522    0.0000 C   0  0  0  0  0  0  0  0  0  0  0  0
   -1.6783   -0.1373    0.0000 C   0  0  0  0  0  0  0  0  0  0  0  0
   -2.9415    0.6717    0.0000 N   0  0  0  0  0  0  0  0  0  0  0  0
   -4.2736   -0.0178    0.0000 C   0  0  0  0  0  0  0  0  0  0  0  0
   -4.3426   -1.5162    0.0000 N   0  0  0  0  0  0  0  0  0  0  0  0
   -5.5368    0.7911    0.0000 N   0  0  0  0  0  0  0  0  0  0  0  0
   -6.8689    0.1016    0.0000 C   0  0  0  0  0  0  0  0  0  0  0  0
    4.8445    0.3133    0.0000 C   0  0  0  0  0  0  0  0  0  0  0  0
    4.9135    1.8117    0.0000 O   0  0  0  0  0  0  0  0  0  0  0  0
    6.1077   -0.4956    0.0000 O   0  0  0  0  0  0  0  0  0  0  0  0
  2  1  1  1
  2  3  1  0
  3  4  1  0
  4  5  1  0
  5  6  1  0
  6  7  1  0
  7  8  1  0
  8  9  2  0
  8 10  1  0
 10 11  1  0
  2 12  1  0
 12 13  2  0
 12 14  1  0
M  END
>  <rName>  (999) 
hArg_Me

>  <PQ_SYMBOL>  (999) 
hArg_Me

>  <FULL_NAME>  (999) 
(2S)-2-amino-6-[(N'-methylcarbamimidoyl)amino]hexanoic acid

>  <IUPAC_CONDENSED>  (999) 
hArg(Me)

>  <IUPAC>  (999) 
(2S)-2-amino-6-(((imino)(methylamino)methyl)amino)hexanoic acid

>  <TYPE>  (999) 
Backbone

>  <CLASS>  (999) 
alpha

>  <ANALOG>  (999) 
Arg

>  <MOL_WT>  (999) 
202.258

>  <LOGP>  (999) 
-0.6876299999999986

>  <TPSA>  (999) 
111.23

>  <POPULARITY>  (999) 
6.7

>  <PROTECTED>  (999) 
TRUE

>  <SMILES>  (999) 
N[C@@H](CCCCNC(=N)NC)C(=O)O

>  <INCHIKEY>  (999) 
BISBENXUJVLWNC-LURJTMIESA-N

$$$$
D-hArg_Et_Et
     RDKit          2D

 17 16  0  0  0  0  0  0  0  0999 V2000
    4.2245   -1.5752    0.0000 N   0  0  0  0  0  0  0  0  0  0  0  0
    4.2042   -0.0754    0.0000 C   0  0  0  0  0  0  0  0  0  0  0  0
    2.8951    0.6570    0.0000 C   0  0  0  0  0  0  0  0  0  0  0  0
    1.6063   -0.1106    0.0000 C   0  0  0  0  0  0  0  0  0  0  0  0
    0.2973    0.6217    0.0000 C   0  0  0  0  0  0  0  0  0  0  0  0
   -0.9915   -0.1458    0.0000 C   0  0  0  0  0  0  0  0  0  0  0  0
   -2.3006    0.5865    0.0000 N   0  0  0  0  0  0  0  0  0  0  0  0
   -3.5893   -0.1810    0.0000 C   0  0  0  0  0  0  0  0  0  0  0  0
   -4.8984    0.5513    0.0000 N   0  0  0  0  0  0  0  0  0  0  0  0
   -4.9188    2.0511    0.0000 C   0  0  0  0  0  0  0  0  0  0  0  0
   -6.2278    2.7835    0.0000 C   0  0  0  0  0  0  0  0  0  0  0  0
   -3.5690   -1.6809    0.0000 N   0  0  0  0  0  0  0  0  0  0  0  0
   -2.2599   -2.4132    0.0000 C   0  0  0  0  0  0  0  0  0  0  0  0
   -2.2396   -3.9131    0.0000 C   0  0  0  0  0  0  0  0  0  0  0  0
    5.4929    0.6922    0.0000 C   0  0  0  0  0  0  0  0  0  0  0  0
    5.4726    2.1920    0.0000 O   0  0  0  0  0  0  0  0  0  0  0  0
    6.8020   -0.0401    0.0000 O   0  0  0  0  0  0  0  0  0  0  0  0
  2  1  1  6
  2  3  1  0
  3  4  1  0
  4  5  1  0
  5  6  1  0
  6  7  1  0
  7  8  1  0
  8  9  2  3
  9 10  1  0
 10 11  1  0
  8 12  1  0
 12 13  1  0
 13 14  1  0
  2 15  1  0
 15 16  2  0
 15 17  1  0
M  END
>  <rName>  (1000) 
D-hArg_Et_Et

>  <PQ_SYMBOL>  (1000) 
D-hArg_Et_Et

>  <FULL_NAME>  (1000) 
N6-(Bis(ethylamino)methylene)-D-lysine

>  <IUPAC_CONDENSED>  (1000) 
D-hArg(Et,Et)

>  <IUPAC>  (1000) 
(2R)-2-amino-6-(((ethylamino)(ethylimino)methyl)amino)hexanoic acid

>  <TYPE>  (1000) 
Backbone

>  <CLASS>  (1000) 
alpha

>  <ANALOG>  (1000) 
Arg

>  <MOL_WT>  (1000) 
244.339

>  <LOGP>  (1000) 
0.143600000000001

>  <TPSA>  (1000) 
99.74

>  <POPULARITY>  (1000) 
11.3

>  <PROTECTED>  (1000) 
TRUE

>  <SMILES>  (1000) 
N[C@H](CCCCNC(=NCC)NCC)C(=O)O

>  <INCHIKEY>  (1000) 
PWLYCRQCVMQUBU-SECBINFHSA-N

$$$$
imino-Phe
     RDKit          2D

 12 12  0  0  0  0  0  0  0  0999 V2000
   -1.2391    1.6805    0.0000 N   0  0  0  0  0  0  0  0  0  0  0  0
   -1.6184    0.2292    0.0000 C   0  0  0  0  0  0  0  0  0  0  0  0
   -0.5513   -0.8249    0.0000 C   0  0  0  0  0  0  0  0  0  0  0  0
    0.8952   -0.4278    0.0000 C   0  0  0  0  0  0  0  0  0  0  0  0
    1.2745    1.0235    0.0000 C   0  0  0  0  0  0  0  0  0  0  0  0
    2.7210    1.4206    0.0000 C   0  0  0  0  0  0  0  0  0  0  0  0
    3.7882    0.3665    0.0000 C   0  0  0  0  0  0  0  0  0  0  0  0
    3.4088   -1.0848    0.0000 C   0  0  0  0  0  0  0  0  0  0  0  0
    1.9624   -1.4819    0.0000 C   0  0  0  0  0  0  0  0  0  0  0  0
   -3.0649   -0.1679    0.0000 C   0  0  0  0  0  0  0  0  0  0  0  0
   -3.4442   -1.6191    0.0000 O   0  0  0  0  0  0  0  0  0  0  0  0
   -4.1321    0.8862    0.0000 O   0  0  0  0  0  0  0  0  0  0  0  0
  1  2  2  0
  2  3  1  0
  3  4  1  0
  4  5  2  0
  5  6  1  0
  6  7  2  0
  7  8  1  0
  8  9  2  0
  2 10  1  0
 10 11  2  0
 10 12  1  0
  9  4  1  0
M  END
>  <rName>  (1001) 
imino-Phe

>  <PQ_SYMBOL>  (1001) 
imino-Phe

>  <FULL_NAME>  (1001) 
2-imino-3-phenylpropanoic acid

>  <IUPAC_CONDENSED>  (1001) 
imino-Phe

>  <IUPAC>  (1001) 
2-imino-3-phenylpropanoic acid

>  <TYPE>  (1001) 
Backbone

>  <CLASS>  (1001) 
unknown

>  <ANALOG>  (1001) 
Phe

>  <MOL_WT>  (1001) 
163.17599999999996

>  <LOGP>  (1001) 
1.3334700000000002

>  <TPSA>  (1001) 
61.150000000000006

>  <POPULARITY>  (1001) 
13.7

>  <PROTECTED>  (1001) 
FALSE

>  <SMILES>  (1001) 
N=C(Cc1(ccccc1))C(=O)O

>  <INCHIKEY>  (1001) 
QBMQCMKHBNWZAJ-UHFFFAOYSA-N

$$$$
Phe_24diOMe
     RDKit          2D

 16 16  0  0  0  0  0  0  0  0999 V2000
   -2.3497    1.9414    0.0000 N   0  0  0  0  0  0  0  0  0  0  0  0
   -2.6382    0.4694    0.0000 C   0  0  0  0  0  0  0  0  0  0  0  0
   -1.5077   -0.5165    0.0000 C   0  0  0  0  0  0  0  0  0  0  0  0
   -0.0887   -0.0304    0.0000 C   0  0  0  0  0  0  0  0  0  0  0  0
    0.1999    1.4416    0.0000 C   0  0  0  0  0  0  0  0  0  0  0  0
    1.6189    1.9277    0.0000 C   0  0  0  0  0  0  0  0  0  0  0  0
    2.7494    0.9418    0.0000 C   0  0  0  0  0  0  0  0  0  0  0  0
    4.1685    1.4279    0.0000 O   0  0  0  0  0  0  0  0  0  0  0  0
    5.2990    0.4420    0.0000 C   0  0  0  0  0  0  0  0  0  0  0  0
    2.4609   -0.5302    0.0000 C   0  0  0  0  0  0  0  0  0  0  0  0
    1.0418   -1.0163    0.0000 C   0  0  0  0  0  0  0  0  0  0  0  0
    0.7532   -2.4883    0.0000 O   0  0  0  0  0  0  0  0  0  0  0  0
    1.8837   -3.4742    0.0000 C   0  0  0  0  0  0  0  0  0  0  0  0
   -4.0573   -0.0166    0.0000 C   0  0  0  0  0  0  0  0  0  0  0  0
   -4.3459   -1.4886    0.0000 O   0  0  0  0  0  0  0  0  0  0  0  0
   -5.1878    0.9693    0.0000 O   0  0  0  0  0  0  0  0  0  0  0  0
  2  1  1  1
  2  3  1  0
  3  4  1  0
  4  5  1  0
  5  6  2  0
  6  7  1  0
  7  8  1  0
  8  9  1  0
  7 10  2  0
 10 11  1  0
 11 12  1  0
 12 13  1  0
  2 14  1  0
 14 15  2  0
 14 16  1  0
 11  4  2  0
M  END
>  <rName>  (1002) 
Phe_24diOMe

>  <PQ_SYMBOL>  (1002) 
Phe_24diOMe

>  <FULL_NAME>  (1002) 
(2S)-2-amino-3-(2,4-dimethoxyphenyl)propanoic acid

>  <IUPAC_CONDENSED>  (1002) 
Phe(2,4-diOMe)

>  <IUPAC>  (1002) 
(2S)-2-amino-3-(2,4-dimethoxyphenyl)propanoic acid

>  <TYPE>  (1002) 
Backbone

>  <CLASS>  (1002) 
alpha

>  <ANALOG>  (1002) 
Tyr

>  <MOL_WT>  (1002) 
225.24399999999997

>  <LOGP>  (1002) 
0.6581999999999999

>  <TPSA>  (1002) 
81.78

>  <POPULARITY>  (1002) 
8.4

>  <PROTECTED>  (1002) 
TRUE

>  <SMILES>  (1002) 
N[C@@H](Cc1(ccc(OC)cc1OC))C(=O)O

>  <INCHIKEY>  (1002) 
FATCEKMZLXXPPE-VIFPVBQESA-N

$$$$
D-hTyr
     RDKit          2D

 14 14  0  0  0  0  0  0  0  0999 V2000
   -3.1731   -1.8740    0.0000 N   0  0  0  0  0  0  0  0  0  0  0  0
   -2.8476   -0.4097    0.0000 C   0  0  0  0  0  0  0  0  0  0  0  0
   -1.4168    0.0405    0.0000 C   0  0  0  0  0  0  0  0  0  0  0  0
   -0.3114   -0.9735    0.0000 C   0  0  0  0  0  0  0  0  0  0  0  0
    1.1194   -0.5232    0.0000 C   0  0  0  0  0  0  0  0  0  0  0  0
    1.4449    0.9411    0.0000 C   0  0  0  0  0  0  0  0  0  0  0  0
    2.8757    1.3913    0.0000 C   0  0  0  0  0  0  0  0  0  0  0  0
    3.9810    0.3773    0.0000 C   0  0  0  0  0  0  0  0  0  0  0  0
    5.4119    0.8276    0.0000 O   0  0  0  0  0  0  0  0  0  0  0  0
    3.6556   -1.0870    0.0000 C   0  0  0  0  0  0  0  0  0  0  0  0
    2.2247   -1.5372    0.0000 C   0  0  0  0  0  0  0  0  0  0  0  0
   -3.9530    0.6043    0.0000 C   0  0  0  0  0  0  0  0  0  0  0  0
   -3.6275    2.0685    0.0000 O   0  0  0  0  0  0  0  0  0  0  0  0
   -5.3838    0.1540    0.0000 O   0  0  0  0  0  0  0  0  0  0  0  0
  2  1  1  1
  2  3  1  0
  3  4  1  0
  4  5  1  0
  5  6  1  0
  6  7  2  0
  7  8  1  0
  8  9  1  0
  8 10  2  0
 10 11  1  0
  2 12  1  0
 12 13  2  0
 12 14  1  0
 11  5  2  0
M  END
>  <rName>  (1003) 
D-hTyr

>  <PQ_SYMBOL>  (1003) 
D-hTyr

>  <FULL_NAME>  (1003) 
(2R)-2-amino-4-(4-hydroxyphenyl)butanoic acid

>  <IUPAC_CONDENSED>  (1003) 
D-hTyr

>  <IUPAC>  (1003) 
(2R)-2-amino-4-(4-hydroxyphenyl)butanoic acid

>  <TYPE>  (1003) 
Backbone

>  <CLASS>  (1003) 
alpha

>  <ANALOG>  (1003) 
Tyr

>  <MOL_WT>  (1003) 
195.218

>  <LOGP>  (1003) 
0.7366999999999999

>  <TPSA>  (1003) 
83.55

>  <POPULARITY>  (1003) 
9.8

>  <PROTECTED>  (1003) 
TRUE

>  <SMILES>  (1003) 
N[C@H](CCc1(ccc(O)cc1))C(=O)O

>  <INCHIKEY>  (1003) 
LOOZZTFGSTZNRX-SECBINFHSA-N

$$$$
Aoda
     RDKit          2D

 14 13  0  0  0  0  0  0  0  0999 V2000
    3.4434   -1.8746    0.0000 N   0  0  0  0  0  0  0  0  0  0  0  0
    3.5124   -0.3762    0.0000 C   0  0  0  0  0  0  0  0  0  0  0  0
    2.2492    0.4328    0.0000 C   0  0  0  0  0  0  0  0  0  0  0  0
    0.9171   -0.2567    0.0000 C   0  0  0  0  0  0  0  0  0  0  0  0
   -0.3461    0.5522    0.0000 C   0  0  0  0  0  0  0  0  0  0  0  0
   -1.6783   -0.1373    0.0000 C   0  0  0  0  0  0  0  0  0  0  0  0
   -2.9415    0.6717    0.0000 C   0  0  0  0  0  0  0  0  0  0  0  0
   -4.2736   -0.0178    0.0000 C   0  0  0  0  0  0  0  0  0  0  0  0
   -4.3426   -1.5162    0.0000 O   0  0  0  0  0  0  0  0  0  0  0  0
   -5.5368    0.7911    0.0000 C   0  0  0  0  0  0  0  0  0  0  0  0
   -6.8689    0.1016    0.0000 C   0  0  0  0  0  0  0  0  0  0  0  0
    4.8445    0.3133    0.0000 C   0  0  0  0  0  0  0  0  0  0  0  0
    4.9135    1.8117    0.0000 O   0  0  0  0  0  0  0  0  0  0  0  0
    6.1077   -0.4956    0.0000 O   0  0  0  0  0  0  0  0  0  0  0  0
  2  1  1  1
  2  3  1  0
  3  4  1  0
  4  5  1  0
  5  6  1  0
  6  7  1  0
  7  8  1  0
  8  9  2  0
  8 10  1  0
 10 11  1  0
  2 12  1  0
 12 13  2  0
 12 14  1  0
M  END
>  <rName>  (1004) 
Aoda

>  <PQ_SYMBOL>  (1004) 
Aoda

>  <FULL_NAME>  (1004) 
(2S)-2-amino-8-oxodecanoic acid

>  <IUPAC_CONDENSED>  (1004) 
Aoda

>  <IUPAC>  (1004) 
(2S)-2-amino-8-oxodecanoic acid

>  <TYPE>  (1004) 
Backbone

>  <CLASS>  (1004) 
alpha

>  <ANALOG>  (1004) 
X

>  <MOL_WT>  (1004) 
201.266

>  <LOGP>  (1004) 
1.3278999999999996

>  <TPSA>  (1004) 
80.39

>  <POPULARITY>  (1004) 
14.2

>  <PROTECTED>  (1004) 
FALSE

>  <SMILES>  (1004) 
N[C@@H](CCCCCC(=O)CC)C(=O)O

>  <INCHIKEY>  (1004) 
OUGZJFOMQFQKAD-VIFPVBQESA-N

$$$$
D-Lys_Me
     RDKit          2D

 11 10  0  0  0  0  0  0  0  0999 V2000
    1.9630   -1.8884    0.0000 N   0  0  0  0  0  0  0  0  0  0  0  0
    1.9989   -0.3888    0.0000 C   0  0  0  0  0  0  0  0  0  0  0  0
    0.7181    0.3920    0.0000 C   0  0  0  0  0  0  0  0  0  0  0  0
   -0.5985   -0.3267    0.0000 C   0  0  0  0  0  0  0  0  0  0  0  0
   -1.8792    0.4541    0.0000 C   0  0  0  0  0  0  0  0  0  0  0  0
   -3.1958   -0.2646    0.0000 C   0  0  0  0  0  0  0  0  0  0  0  0
   -4.4765    0.5162    0.0000 N   0  0  0  0  0  0  0  0  0  0  0  0
   -5.7931   -0.2025    0.0000 C   0  0  0  0  0  0  0  0  0  0  0  0
    3.3155    0.3299    0.0000 C   0  0  0  0  0  0  0  0  0  0  0  0
    3.3513    1.8295    0.0000 O   0  0  0  0  0  0  0  0  0  0  0  0
    4.5962   -0.4509    0.0000 O   0  0  0  0  0  0  0  0  0  0  0  0
  2  1  1  6
  2  3  1  0
  3  4  1  0
  4  5  1  0
  5  6  1  0
  6  7  1  0
  7  8  1  0
  2  9  1  0
  9 10  2  0
  9 11  1  0
M  END
>  <rName>  (1005) 
D-Lys_Me

>  <PQ_SYMBOL>  (1005) 
D-Lys_Me

>  <FULL_NAME>  (1005) 
D-N-epsilon-Methyllysine

>  <IUPAC_CONDENSED>  (1005) 
D-Lys(Me)

>  <IUPAC>  (1005) 
(2R)-2-amino-6-(methylamino)hexanoic acid

>  <TYPE>  (1005) 
Backbone

>  <CLASS>  (1005) 
alpha

>  <ANALOG>  (1005) 
Lys

>  <MOL_WT>  (1005) 
160.217

>  <LOGP>  (1005) 
-0.21200000000000047

>  <TPSA>  (1005) 
75.35

>  <POPULARITY>  (1005) 
12.6

>  <PROTECTED>  (1005) 
TRUE

>  <SMILES>  (1005) 
N[C@H](CCCCNC)C(=O)O

>  <INCHIKEY>  (1005) 
PQNASZJZHFPQLE-ZCFIWIBFSA-N

$$$$
Phe_4PO3H2
     RDKit          2D

 16 16  0  0  0  0  0  0  0  0999 V2000
   -2.5021    1.6866    0.0000 N   0  0  0  0  0  0  0  0  0  0  0  0
   -3.0051    0.2735    0.0000 C   0  0  0  0  0  0  0  0  0  0  0  0
   -2.0328   -0.8687    0.0000 C   0  0  0  0  0  0  0  0  0  0  0  0
   -0.5574   -0.5977    0.0000 C   0  0  0  0  0  0  0  0  0  0  0  0
   -0.0545    0.8155    0.0000 C   0  0  0  0  0  0  0  0  0  0  0  0
    1.4208    1.0865    0.0000 C   0  0  0  0  0  0  0  0  0  0  0  0
    2.3932   -0.0557    0.0000 C   0  0  0  0  0  0  0  0  0  0  0  0
    1.8902   -1.4688    0.0000 C   0  0  0  0  0  0  0  0  0  0  0  0
    0.4149   -1.7398    0.0000 C   0  0  0  0  0  0  0  0  0  0  0  0
    3.8685    0.2153    0.0000 P   0  0  0  0  0  0  0  0  0  0  0  0
    5.3438    0.4863    0.0000 O   0  0  0  0  0  0  0  0  0  0  0  0
    4.1395   -1.2600    0.0000 O   0  0  0  0  0  0  0  0  0  0  0  0
    3.5975    1.6906    0.0000 O   0  0  0  0  0  0  0  0  0  0  0  0
   -4.4804    0.0025    0.0000 C   0  0  0  0  0  0  0  0  0  0  0  0
   -4.9834   -1.4107    0.0000 O   0  0  0  0  0  0  0  0  0  0  0  0
   -5.4528    1.1446    0.0000 O   0  0  0  0  0  0  0  0  0  0  0  0
  2  1  1  1
  2  3  1  0
  3  4  1  0
  4  5  1  0
  5  6  2  0
  6  7  1  0
  7  8  2  0
  8  9  1  0
  7 10  1  0
 10 11  2  0
 10 12  1  0
 10 13  1  0
  2 14  1  0
 14 15  2  0
 14 16  1  0
  9  4  2  0
M  END
>  <rName>  (1006) 
Phe_4PO3H2

>  <PQ_SYMBOL>  (1006) 
Phe_4PO3H2

>  <FULL_NAME>  (1006) 
(2S)-2-amino-3-(4-phosphonophenyl)propanoic acid

>  <IUPAC_CONDENSED>  (1006) 
Phe(4-PO3H2)

>  <IUPAC>  (1006) 
(2S)-2-amino-3-(4-(dihydroxyphosphoryl)phenyl)propanoic acid

>  <TYPE>  (1006) 
Backbone

>  <CLASS>  (1006) 
alpha

>  <ANALOG>  (1006) 
Phe

>  <MOL_WT>  (1006) 
245.17099999999996

>  <LOGP>  (1006) 
-0.5560000000000003

>  <TPSA>  (1006) 
120.85000000000001

>  <POPULARITY>  (1006) 
11.3

>  <PROTECTED>  (1006) 
TRUE

>  <SMILES>  (1006) 
N[C@@H](Cc1(ccc(cc1)P(=O)(O)O))C(=O)O

>  <INCHIKEY>  (1006) 
DGIHNAYKZDFPPV-QMMMGPOBSA-N

$$$$
Phe_35diMe
     RDKit          2D

 14 14  0  0  0  0  0  0  0  0999 V2000
   -1.8014    1.6047    0.0000 N   0  0  0  0  0  0  0  0  0  0  0  0
   -2.1617    0.1486    0.0000 C   0  0  0  0  0  0  0  0  0  0  0  0
   -1.0809   -0.8915    0.0000 C   0  0  0  0  0  0  0  0  0  0  0  0
    0.3603   -0.4755    0.0000 C   0  0  0  0  0  0  0  0  0  0  0  0
    0.7206    0.9806    0.0000 C   0  0  0  0  0  0  0  0  0  0  0  0
    2.1617    1.3967    0.0000 C   0  0  0  0  0  0  0  0  0  0  0  0
    2.5220    2.8527    0.0000 C   0  0  0  0  0  0  0  0  0  0  0  0
    3.2426    0.3566    0.0000 C   0  0  0  0  0  0  0  0  0  0  0  0
    2.8823   -1.0995    0.0000 C   0  0  0  0  0  0  0  0  0  0  0  0
    3.9632   -2.1396    0.0000 C   0  0  0  0  0  0  0  0  0  0  0  0
    1.4412   -1.5155    0.0000 C   0  0  0  0  0  0  0  0  0  0  0  0
   -3.6029   -0.2674    0.0000 C   0  0  0  0  0  0  0  0  0  0  0  0
   -3.9632   -1.7235    0.0000 O   0  0  0  0  0  0  0  0  0  0  0  0
   -4.6837    0.7726    0.0000 O   0  0  0  0  0  0  0  0  0  0  0  0
  2  1  1  1
  2  3  1  0
  3  4  1  0
  4  5  2  0
  5  6  1  0
  6  7  1  0
  6  8  2  0
  8  9  1  0
  9 10  1  0
  9 11  2  0
  2 12  1  0
 12 13  2  0
 12 14  1  0
 11  4  1  0
M  END
>  <rName>  (1007) 
Phe_35diMe

>  <PQ_SYMBOL>  (1007) 
Phe_35diMe

>  <FULL_NAME>  (1007) 
(2S)-2-amino-3-(3,5-dimethylphenyl)propanoic acid

>  <IUPAC_CONDENSED>  (1007) 
Phe(3,5-diMe)

>  <IUPAC>  (1007) 
(2S)-2-amino-3-(3,5-dimethylphenyl)propanoic acid

>  <TYPE>  (1007) 
Backbone

>  <CLASS>  (1007) 
alpha

>  <ANALOG>  (1007) 
Phe

>  <MOL_WT>  (1007) 
193.24599999999998

>  <LOGP>  (1007) 
1.25784

>  <TPSA>  (1007) 
63.32000000000001

>  <POPULARITY>  (1007) 
8.9

>  <PROTECTED>  (1007) 
TRUE

>  <SMILES>  (1007) 
N[C@@H](Cc1(cc(C)cc(C)c1))C(=O)O

>  <INCHIKEY>  (1007) 
BJEFUMBSVAPULZ-JTQLQIEISA-N

$$$$
Pro_44diMe
     RDKit          2D

 10 10  0  0  0  0  0  0  0  0999 V2000
    0.0971   -1.5050    0.0000 N   0  0  0  0  0  0  0  0  0  0  0  0
    0.7221   -0.1414    0.0000 C   0  0  0  0  0  0  0  0  0  0  0  0
   -0.3816    0.8744    0.0000 C   0  0  0  0  0  0  0  0  0  0  0  0
   -1.6888    0.1386    0.0000 C   0  0  0  0  0  0  0  0  0  0  0  0
   -3.1203   -0.3093    0.0000 C   0  0  0  0  0  0  0  0  0  0  0  0
   -2.2839    1.5155    0.0000 C   0  0  0  0  0  0  0  0  0  0  0  0
   -1.3929   -1.3319    0.0000 C   0  0  0  0  0  0  0  0  0  0  0  0
    2.1926    0.1544    0.0000 C   0  0  0  0  0  0  0  0  0  0  0  0
    2.6717    1.5759    0.0000 O   0  0  0  0  0  0  0  0  0  0  0  0
    3.1841   -0.9712    0.0000 O   0  0  0  0  0  0  0  0  0  0  0  0
  1  2  1  0
  2  3  1  0
  3  4  1  0
  4  5  1  0
  4  6  1  0
  4  7  1  0
  2  8  1  1
  8  9  2  0
  8 10  1  0
  7  1  1  0
M  END
>  <rName>  (1008) 
Pro_44diMe

>  <PQ_SYMBOL>  (1008) 
Pro_44diMe

>  <FULL_NAME>  (1008) 
(2S)-4,4-dimethylpyrrolidine-2-carboxylic acid

>  <IUPAC_CONDENSED>  (1008) 
Pro(4,4-diMe)

>  <IUPAC>  (1008) 
(2S)-4,4-dimethylpyrrolidine-2-carboxylic acid

>  <TYPE>  (1008) 
Backbone

>  <CLASS>  (1008) 
alpha

>  <ANALOG>  (1008) 
Pro

>  <MOL_WT>  (1008) 
143.186

>  <LOGP>  (1008) 
0.4591

>  <TPSA>  (1008) 
49.33

>  <POPULARITY>  (1008) 
13.3

>  <PROTECTED>  (1008) 
TRUE

>  <SMILES>  (1008) 
N1[C@@H](CC(C)(C)C1)C(=O)O

>  <INCHIKEY>  (1008) 
BDNWSJQJILLEBS-YFKPBYRVSA-N

$$$$
Nle_hexyl
     RDKit          2D

 15 14  0  0  0  0  0  0  0  0999 V2000
    4.4025   -1.8836    0.0000 N   0  0  0  0  0  0  0  0  0  0  0  0
    4.4139   -0.3836    0.0000 C   0  0  0  0  0  0  0  0  0  0  0  0
    3.1206    0.3763    0.0000 C   0  0  0  0  0  0  0  0  0  0  0  0
    1.8159   -0.3638    0.0000 C   0  0  0  0  0  0  0  0  0  0  0  0
    0.5226    0.3960    0.0000 C   0  0  0  0  0  0  0  0  0  0  0  0
   -0.7821   -0.3441    0.0000 C   0  0  0  0  0  0  0  0  0  0  0  0
   -2.0754    0.4158    0.0000 C   0  0  0  0  0  0  0  0  0  0  0  0
   -3.3801   -0.3243    0.0000 C   0  0  0  0  0  0  0  0  0  0  0  0
   -4.6734    0.4356    0.0000 C   0  0  0  0  0  0  0  0  0  0  0  0
   -5.9781   -0.3045    0.0000 C   0  0  0  0  0  0  0  0  0  0  0  0
   -7.2714    0.4554    0.0000 C   0  0  0  0  0  0  0  0  0  0  0  0
   -8.5761   -0.2847    0.0000 C   0  0  0  0  0  0  0  0  0  0  0  0
    5.7186    0.3565    0.0000 C   0  0  0  0  0  0  0  0  0  0  0  0
    5.7301    1.8564    0.0000 O   0  0  0  0  0  0  0  0  0  0  0  0
    7.0119   -0.4034    0.0000 O   0  0  0  0  0  0  0  0  0  0  0  0
  2  1  1  1
  2  3  1  0
  3  4  1  0
  4  5  1  0
  5  6  1  0
  6  7  1  0
  7  8  1  0
  8  9  1  0
  9 10  1  0
 10 11  1  0
 11 12  1  0
  2 13  1  0
 13 14  2  0
 13 15  1  0
M  END
>  <rName>  (1009) 
Nle_hexyl

>  <PQ_SYMBOL>  (1009) 
Nle_hexyl

>  <FULL_NAME>  (1009) 
(2S)-2-aminododecanoic acid

>  <IUPAC_CONDENSED>  (1009) 
Nle(hexyl)

>  <IUPAC>  (1009) 
(2S)-2-aminododecanoic acid

>  <TYPE>  (1009) 
Backbone

>  <CLASS>  (1009) 
alpha

>  <ANALOG>  (1009) 
X

>  <MOL_WT>  (1009) 
215.337

>  <LOGP>  (1009) 
2.929100000000001

>  <TPSA>  (1009) 
63.32000000000001

>  <POPULARITY>  (1009) 
14.4

>  <PROTECTED>  (1009) 
TRUE

>  <SMILES>  (1009) 
N[C@@H](CCCCCCCCCC)C(=O)O

>  <INCHIKEY>  (1009) 
QUBNFZFTFXTLKH-NSHDSACASA-N

$$$$
Nle_allyl
     RDKit          2D

 12 11  0  0  0  0  0  0  0  0999 V2000
    2.5981    1.8750    0.0000 N   0  0  0  0  0  0  0  0  0  0  0  0
    2.5981    0.3750    0.0000 C   0  0  0  0  0  0  0  0  0  0  0  0
    1.2990   -0.3750    0.0000 C   0  0  0  0  0  0  0  0  0  0  0  0
    0.0000    0.3750    0.0000 C   0  0  0  0  0  0  0  0  0  0  0  0
   -1.2990   -0.3750    0.0000 C   0  0  0  0  0  0  0  0  0  0  0  0
   -2.5981    0.3750    0.0000 C   0  0  0  0  0  0  0  0  0  0  0  0
   -3.8971   -0.3750    0.0000 C   0  0  0  0  0  0  0  0  0  0  0  0
   -5.1962    0.3750    0.0000 C   0  0  0  0  0  0  0  0  0  0  0  0
   -6.4952   -0.3750    0.0000 C   0  0  0  0  0  0  0  0  0  0  0  0
    3.8971   -0.3750    0.0000 C   0  0  0  0  0  0  0  0  0  0  0  0
    3.8971   -1.8750    0.0000 O   0  0  0  0  0  0  0  0  0  0  0  0
    5.1962    0.3750    0.0000 O   0  0  0  0  0  0  0  0  0  0  0  0
  2  1  1  6
  2  3  1  0
  3  4  1  0
  4  5  1  0
  5  6  1  0
  6  7  1  0
  7  8  1  0
  8  9  2  0
  2 10  1  0
 10 11  2  0
 10 12  1  0
M  END
>  <rName>  (1010) 
Nle_allyl

>  <PQ_SYMBOL>  (1010) 
Nle_allyl

>  <FULL_NAME>  (1010) 
(2S)-2-aminonon-8-enoic acid

>  <IUPAC_CONDENSED>  (1010) 
Nle(allyl)

>  <IUPAC>  (1010) 
(2S)-2-aminonon-8-enoic acid

>  <TYPE>  (1010) 
Backbone

>  <CLASS>  (1010) 
alpha

>  <ANALOG>  (1010) 
X

>  <MOL_WT>  (1010) 
171.24

>  <LOGP>  (1010) 
1.5348

>  <TPSA>  (1010) 
63.32000000000001

>  <POPULARITY>  (1010) 
19.7

>  <PROTECTED>  (1010) 
TRUE

>  <SMILES>  (1010) 
N[C@@H](CCCCCC=C)C(=O)O

>  <INCHIKEY>  (1010) 
LKMSSWRWDBZUFC-QMMMGPOBSA-N

$$$$
Tyr_2Me
     RDKit          2D

 14 14  0  0  0  0  0  0  0  0999 V2000
   -1.7174    1.8436    0.0000 N   0  0  0  0  0  0  0  0  0  0  0  0
   -2.1036    0.3942    0.0000 C   0  0  0  0  0  0  0  0  0  0  0  0
   -1.0414   -0.6650    0.0000 C   0  0  0  0  0  0  0  0  0  0  0  0
    0.4069   -0.2747    0.0000 C   0  0  0  0  0  0  0  0  0  0  0  0
    0.7931    1.1747    0.0000 C   0  0  0  0  0  0  0  0  0  0  0  0
    2.2415    1.5649    0.0000 C   0  0  0  0  0  0  0  0  0  0  0  0
    3.3036    0.5057    0.0000 C   0  0  0  0  0  0  0  0  0  0  0  0
    4.7520    0.8960    0.0000 O   0  0  0  0  0  0  0  0  0  0  0  0
    2.9174   -0.9437    0.0000 C   0  0  0  0  0  0  0  0  0  0  0  0
    1.4691   -1.3339    0.0000 C   0  0  0  0  0  0  0  0  0  0  0  0
    1.0829   -2.7834    0.0000 C   0  0  0  0  0  0  0  0  0  0  0  0
   -3.5519    0.0039    0.0000 C   0  0  0  0  0  0  0  0  0  0  0  0
   -3.9381   -1.4455    0.0000 O   0  0  0  0  0  0  0  0  0  0  0  0
   -4.6140    1.0631    0.0000 O   0  0  0  0  0  0  0  0  0  0  0  0
  2  1  1  1
  2  3  1  0
  3  4  1  0
  4  5  1  0
  5  6  2  0
  6  7  1  0
  7  8  1  0
  7  9  2  0
  9 10  1  0
 10 11  1  0
  2 12  1  0
 12 13  2  0
 12 14  1  0
 10  4  2  0
M  END
>  <rName>  (1011) 
Tyr_2Me

>  <PQ_SYMBOL>  (1011) 
Tyr_2Me

>  <FULL_NAME>  (1011) 
(2S)-2-amino-3-(4-hydroxy-2-methylphenyl)propanoic acid

>  <IUPAC_CONDENSED>  (1011) 
Tyr(2-Me)

>  <IUPAC>  (1011) 
(2S)-2-amino-3-(4-hydroxy-2-methylphenyl)propanoic acid

>  <TYPE>  (1011) 
Backbone

>  <CLASS>  (1011) 
alpha

>  <ANALOG>  (1011) 
Tyr

>  <MOL_WT>  (1011) 
195.21799999999996

>  <LOGP>  (1011) 
0.6550199999999999

>  <TPSA>  (1011) 
83.55

>  <POPULARITY>  (1011) 
16.3

>  <PROTECTED>  (1011) 
TRUE

>  <SMILES>  (1011) 
N[C@@H](Cc1(ccc(O)cc1C))C(=O)O

>  <INCHIKEY>  (1011) 
AXEOMQHKTSGLGS-VIFPVBQESA-N

$$$$
imino-Ala
     RDKit          2D

  6  5  0  0  0  0  0  0  0  0999 V2000
    1.5000   -1.2990    0.0000 N   0  0  0  0  0  0  0  0  0  0  0  0
    0.7500    0.0000    0.0000 C   0  0  0  0  0  0  0  0  0  0  0  0
    1.5000    1.2990    0.0000 C   0  0  0  0  0  0  0  0  0  0  0  0
   -0.7500   -0.0000    0.0000 C   0  0  0  0  0  0  0  0  0  0  0  0
   -1.5000    1.2990    0.0000 O   0  0  0  0  0  0  0  0  0  0  0  0
   -1.5000   -1.2990    0.0000 O   0  0  0  0  0  0  0  0  0  0  0  0
  1  2  2  0
  2  3  1  0
  2  4  1  0
  4  5  2  0
  4  6  1  0
M  END
>  <rName>  (1012) 
imino-Ala

>  <PQ_SYMBOL>  (1012) 
imino-Ala

>  <FULL_NAME>  (1012) 
2-iminopropanoic acid

>  <IUPAC_CONDENSED>  (1012) 
imino-Ala

>  <IUPAC>  (1012) 
2-iminopropanoic acid

>  <TYPE>  (1012) 
Backbone

>  <CLASS>  (1012) 
unknown

>  <ANALOG>  (1012) 
Ala

>  <MOL_WT>  (1012) 
87.07799999999999

>  <LOGP>  (1012) 
0.11066999999999999

>  <TPSA>  (1012) 
61.150000000000006

>  <POPULARITY>  (1012) 
15.6

>  <PROTECTED>  (1012) 
FALSE

>  <SMILES>  (1012) 
N=C(C)C(=O)O

>  <INCHIKEY>  (1012) 
DUAWRLXHCUAWMK-UHFFFAOYSA-N

$$$$
Nva_vinyl
     RDKit          2D

 10  9  0  0  0  0  0  0  0  0999 V2000
   -1.4166   -1.8843    0.0000 N   0  0  0  0  0  0  0  0  0  0  0  0
   -1.4265   -0.3844    0.0000 C   0  0  0  0  0  0  0  0  0  0  0  0
   -0.1324    0.3741    0.0000 C   0  0  0  0  0  0  0  0  0  0  0  0
    1.1716   -0.3673    0.0000 C   0  0  0  0  0  0  0  0  0  0  0  0
    2.4657    0.3912    0.0000 C   0  0  0  0  0  0  0  0  0  0  0  0
    3.7696   -0.3503    0.0000 C   0  0  0  0  0  0  0  0  0  0  0  0
    5.0637    0.4082    0.0000 C   0  0  0  0  0  0  0  0  0  0  0  0
   -2.7304    0.3571    0.0000 C   0  0  0  0  0  0  0  0  0  0  0  0
   -2.7402    1.8571    0.0000 O   0  0  0  0  0  0  0  0  0  0  0  0
   -4.0245   -0.4014    0.0000 O   0  0  0  0  0  0  0  0  0  0  0  0
  2  1  1  6
  2  3  1  0
  3  4  1  0
  4  5  1  0
  5  6  1  0
  6  7  2  0
  2  8  1  0
  8  9  2  0
  8 10  1  0
M  END
>  <rName>  (1013) 
Nva_vinyl

>  <PQ_SYMBOL>  (1013) 
Nva_vinyl

>  <FULL_NAME>  (1013) 
(2S)-2-aminohept-6-enoic acid

>  <IUPAC_CONDENSED>  (1013) 
Nva(vinyl)

>  <IUPAC>  (1013) 
(2S)-2-aminohept-6-enoic acid

>  <TYPE>  (1013) 
Backbone

>  <CLASS>  (1013) 
alpha

>  <ANALOG>  (1013) 
Leu

>  <MOL_WT>  (1013) 
143.186

>  <LOGP>  (1013) 
0.7545999999999999

>  <TPSA>  (1013) 
63.32000000000001

>  <POPULARITY>  (1013) 
17.5

>  <PROTECTED>  (1013) 
TRUE

>  <SMILES>  (1013) 
N[C@@H](CCCC=C)C(=O)O

>  <INCHIKEY>  (1013) 
OOOVDVSHGOKTNT-LURJTMIESA-N

$$$$
Tyr_2I
     RDKit          2D

 14 14  0  0  0  0  0  0  0  0999 V2000
   -1.7174    1.8436    0.0000 N   0  0  0  0  0  0  0  0  0  0  0  0
   -2.1036    0.3942    0.0000 C   0  0  0  0  0  0  0  0  0  0  0  0
   -1.0414   -0.6650    0.0000 C   0  0  0  0  0  0  0  0  0  0  0  0
    0.4069   -0.2747    0.0000 C   0  0  0  0  0  0  0  0  0  0  0  0
    0.7931    1.1747    0.0000 C   0  0  0  0  0  0  0  0  0  0  0  0
    2.2415    1.5649    0.0000 C   0  0  0  0  0  0  0  0  0  0  0  0
    3.3036    0.5057    0.0000 C   0  0  0  0  0  0  0  0  0  0  0  0
    4.7520    0.8960    0.0000 O   0  0  0  0  0  0  0  0  0  0  0  0
    2.9174   -0.9437    0.0000 C   0  0  0  0  0  0  0  0  0  0  0  0
    1.4691   -1.3339    0.0000 C   0  0  0  0  0  0  0  0  0  0  0  0
    1.0829   -2.7834    0.0000 I   0  0  0  0  0  0  0  0  0  0  0  0
   -3.5519    0.0039    0.0000 C   0  0  0  0  0  0  0  0  0  0  0  0
   -3.9381   -1.4455    0.0000 O   0  0  0  0  0  0  0  0  0  0  0  0
   -4.6140    1.0631    0.0000 O   0  0  0  0  0  0  0  0  0  0  0  0
  2  1  1  1
  2  3  1  0
  3  4  1  0
  4  5  1  0
  5  6  2  0
  6  7  1  0
  7  8  1  0
  7  9  2  0
  9 10  1  0
 10 11  1  0
  2 12  1  0
 12 13  2  0
 12 14  1  0
 10  4  2  0
M  END
>  <rName>  (1014) 
Tyr_2I

>  <PQ_SYMBOL>  (1014) 
Tyr_2I

>  <FULL_NAME>  (1014) 
(2S)-2-amino-3-(4-hydroxy-2-iodophenyl)propanoic acid

>  <IUPAC_CONDENSED>  (1014) 
Tyr(2-I)

>  <IUPAC>  (1014) 
(2S)-2-amino-3-(4-hydroxy-2-iodophenyl)propanoic acid

>  <TYPE>  (1014) 
Backbone

>  <CLASS>  (1014) 
alpha

>  <ANALOG>  (1014) 
Tyr

>  <MOL_WT>  (1014) 
307.087

>  <LOGP>  (1014) 
0.9512

>  <TPSA>  (1014) 
83.55

>  <POPULARITY>  (1014) 
10.1

>  <PROTECTED>  (1014) 
TRUE

>  <SMILES>  (1014) 
N[C@@H](Cc1(ccc(O)cc1I))C(=O)O

>  <INCHIKEY>  (1014) 
BMBZSHPNHVPCNG-QMMMGPOBSA-N

$$$$
Ac7c
     RDKit          2D

 11 11  0  0  0  0  0  0  0  0999 V2000
    1.4360   -1.5431    0.0000 N   0  0  0  0  0  0  0  0  0  0  0  0
    0.4971   -0.3733    0.0000 C   0  0  0  0  0  0  0  0  0  0  0  0
    0.1588    1.0881    0.0000 C   0  0  0  0  0  0  0  0  0  0  0  0
   -1.1947    1.7347    0.0000 C   0  0  0  0  0  0  0  0  0  0  0  0
   -2.5441    1.0796    0.0000 C   0  0  0  0  0  0  0  0  0  0  0  0
   -2.8733   -0.3838    0.0000 C   0  0  0  0  0  0  0  0  0  0  0  0
   -1.9344   -1.5536    0.0000 C   0  0  0  0  0  0  0  0  0  0  0  0
   -0.4344   -1.5489    0.0000 C   0  0  0  0  0  0  0  0  0  0  0  0
    1.8465    0.2818    0.0000 C   0  0  0  0  0  0  0  0  0  0  0  0
    1.9540    1.7779    0.0000 O   0  0  0  0  0  0  0  0  0  0  0  0
    3.0885   -0.5593    0.0000 O   0  0  0  0  0  0  0  0  0  0  0  0
  1  2  1  0
  2  3  1  0
  3  4  1  0
  4  5  1  0
  5  6  1  0
  6  7  1  0
  7  8  1  0
  2  9  1  0
  9 10  2  0
  9 11  1  0
  8  2  1  0
M  END
>  <rName>  (1015) 
Ac7c

>  <PQ_SYMBOL>  (1015) 
Ac7c

>  <FULL_NAME>  (1015) 
1-aminocycloheptane-1-carboxylic acid

>  <IUPAC_CONDENSED>  (1015) 
Ac7c

>  <IUPAC>  (1015) 
1-aminocycloheptanecarboxylic acid

>  <TYPE>  (1015) 
Backbone

>  <CLASS>  (1015) 
alpha

>  <ANALOG>  (1015) 
X

>  <MOL_WT>  (1015) 
157.21300000000002

>  <LOGP>  (1015) 
1.1227

>  <TPSA>  (1015) 
63.32000000000001

>  <POPULARITY>  (1015) 
17.2

>  <PROTECTED>  (1015) 
TRUE

>  <SMILES>  (1015) 
NC1(CCCCCC1)C(=O)O

>  <INCHIKEY>  (1015) 
IINRZEIPFQHEAP-UHFFFAOYSA-N

$$$$
D-Abu_cHex
     RDKit          2D

 13 13  0  0  0  0  0  0  0  0999 V2000
   -2.6715   -1.9340    0.0000 N   0  0  0  0  0  0  0  0  0  0  0  0
   -2.4130   -0.4565    0.0000 C   0  0  0  0  0  0  0  0  0  0  0  0
   -1.0042    0.0585    0.0000 C   0  0  0  0  0  0  0  0  0  0  0  0
    0.1462   -0.9041    0.0000 C   0  0  0  0  0  0  0  0  0  0  0  0
    1.5550   -0.3891    0.0000 C   0  0  0  0  0  0  0  0  0  0  0  0
    1.8135    1.0885    0.0000 C   0  0  0  0  0  0  0  0  0  0  0  0
    3.2223    1.6034    0.0000 C   0  0  0  0  0  0  0  0  0  0  0  0
    4.3727    0.6408    0.0000 C   0  0  0  0  0  0  0  0  0  0  0  0
    4.1143   -0.8367    0.0000 C   0  0  0  0  0  0  0  0  0  0  0  0
    2.7054   -1.3517    0.0000 C   0  0  0  0  0  0  0  0  0  0  0  0
   -3.5634    0.5061    0.0000 C   0  0  0  0  0  0  0  0  0  0  0  0
   -3.3050    1.9837    0.0000 O   0  0  0  0  0  0  0  0  0  0  0  0
   -4.9723   -0.0089    0.0000 O   0  0  0  0  0  0  0  0  0  0  0  0
  2  1  1  1
  2  3  1  0
  3  4  1  0
  4  5  1  0
  5  6  1  0
  6  7  1  0
  7  8  1  0
  8  9  1  0
  9 10  1  0
  2 11  1  0
 11 12  2  0
 11 13  1  0
 10  5  1  0
M  END
>  <rName>  (1016) 
D-Abu_cHex

>  <PQ_SYMBOL>  (1016) 
D-Abu_cHex

>  <FULL_NAME>  (1016) 
(2R)-2-amino-4-cyclohexylbutanoic acid

>  <IUPAC_CONDENSED>  (1016) 
D-Abu(cHex)

>  <IUPAC>  (1016) 
(2R)-2-amino-4-cyclohexylbutanoic acid

>  <TYPE>  (1016) 
Backbone

>  <CLASS>  (1016) 
alpha

>  <ANALOG>  (1016) 
Ala

>  <MOL_WT>  (1016) 
185.267

>  <LOGP>  (1016) 
1.7588

>  <TPSA>  (1016) 
63.32000000000001

>  <POPULARITY>  (1016) 
13.4

>  <PROTECTED>  (1016) 
TRUE

>  <SMILES>  (1016) 
N[C@H](CCC1(CCCCC1))C(=O)O

>  <INCHIKEY>  (1016) 
MXHKOHWUQAULOV-SECBINFHSA-N

$$$$
Tyr_3CO2H
     RDKit          2D

 16 16  0  0  0  0  0  0  0  0999 V2000
   -2.7936    1.6481    0.0000 N   0  0  0  0  0  0  0  0  0  0  0  0
   -2.9203    0.1535    0.0000 C   0  0  0  0  0  0  0  0  0  0  0  0
   -1.6893   -0.7036    0.0000 C   0  0  0  0  0  0  0  0  0  0  0  0
   -0.3315   -0.0660    0.0000 C   0  0  0  0  0  0  0  0  0  0  0  0
   -0.2048    1.4287    0.0000 C   0  0  0  0  0  0  0  0  0  0  0  0
    1.1530    2.0662    0.0000 C   0  0  0  0  0  0  0  0  0  0  0  0
    2.3840    1.2092    0.0000 C   0  0  0  0  0  0  0  0  0  0  0  0
    3.7417    1.8468    0.0000 O   0  0  0  0  0  0  0  0  0  0  0  0
    2.2573   -0.2855    0.0000 C   0  0  0  0  0  0  0  0  0  0  0  0
    0.8995   -0.9230    0.0000 C   0  0  0  0  0  0  0  0  0  0  0  0
    3.4883   -1.1425    0.0000 C   0  0  0  0  0  0  0  0  0  0  0  0
    4.8461   -0.5049    0.0000 O   0  0  0  0  0  0  0  0  0  0  0  0
    3.3616   -2.6372    0.0000 O   0  0  0  0  0  0  0  0  0  0  0  0
   -4.2781   -0.4841    0.0000 C   0  0  0  0  0  0  0  0  0  0  0  0
   -4.4048   -1.9787    0.0000 O   0  0  0  0  0  0  0  0  0  0  0  0
   -5.5091    0.3730    0.0000 O   0  0  0  0  0  0  0  0  0  0  0  0
  2  1  1  1
  2  3  1  0
  3  4  1  0
  4  5  1  0
  5  6  2  0
  6  7  1  0
  7  8  1  0
  7  9  2  0
  9 10  1  0
  9 11  1  0
 11 12  2  0
 11 13  1  0
  2 14  1  0
 14 15  2  0
 14 16  1  0
 10  4  2  0
M  END
>  <rName>  (1017) 
Tyr_3CO2H

>  <PQ_SYMBOL>  (1017) 
Tyr_3CO2H

>  <FULL_NAME>  (1017) 
L-3-Carboxytyrosine

>  <IUPAC_CONDENSED>  (1017) 
Tyr(3-CO2H)

>  <IUPAC>  (1017) 
5-((2S)-2-amino-3-hydroxy-3-oxopropyl)-2-hydroxybenzene-1-carboxylic acid

>  <TYPE>  (1017) 
Backbone

>  <CLASS>  (1017) 
alpha

>  <ANALOG>  (1017) 
Tyr

>  <MOL_WT>  (1017) 
225.19999999999996

>  <LOGP>  (1017) 
0.04479999999999984

>  <TPSA>  (1017) 
120.85000000000001

>  <POPULARITY>  (1017) 
7.4

>  <PROTECTED>  (1017) 
TRUE

>  <SMILES>  (1017) 
N[C@@H](Cc1(ccc(O)c(c1)C(=O)O))C(=O)O

>  <INCHIKEY>  (1017) 
AZXBADPWXOWMKQ-ZETCQYMHSA-N

$$$$
aMeAbu_vinyl
     RDKit          2D

 10  9  0  0  0  0  0  0  0  0999 V2000
    0.0056    1.7744    0.0000 N   0  0  0  0  0  0  0  0  0  0  0  0
   -0.8858    0.5680    0.0000 C   0  0  0  0  0  0  0  0  0  0  0  0
   -2.0922    1.4594    0.0000 C   0  0  0  0  0  0  0  0  0  0  0  0
    0.3205   -0.3234    0.0000 C   0  0  0  0  0  0  0  0  0  0  0  0
    1.6957    0.2756    0.0000 C   0  0  0  0  0  0  0  0  0  0  0  0
    2.9021   -0.6158    0.0000 C   0  0  0  0  0  0  0  0  0  0  0  0
    4.2773   -0.0167    0.0000 C   0  0  0  0  0  0  0  0  0  0  0  0
   -1.7773   -0.6384    0.0000 C   0  0  0  0  0  0  0  0  0  0  0  0
   -3.2677   -0.4696    0.0000 O   0  0  0  0  0  0  0  0  0  0  0  0
   -1.1782   -2.0136    0.0000 O   0  0  0  0  0  0  0  0  0  0  0  0
  1  2  1  0
  2  3  1  6
  2  4  1  0
  4  5  1  0
  5  6  1  0
  6  7  2  0
  2  8  1  0
  8  9  2  0
  8 10  1  0
M  END
>  <rName>  (1018) 
aMeAbu_vinyl

>  <PQ_SYMBOL>  (1018) 
aMeAbu_vinyl

>  <FULL_NAME>  (1018) 
(2S)-2-amino-2-methylhex-5-enoic acid

>  <IUPAC_CONDENSED>  (1018) 
aMeAbu(vinyl)

>  <IUPAC>  (1018) 
(2S)-2-amino-2-methylhex-5-enoic acid

>  <TYPE>  (1018) 
Backbone

>  <CLASS>  (1018) 
alpha

>  <ANALOG>  (1018) 
Leu

>  <MOL_WT>  (1018) 
143.186

>  <LOGP>  (1018) 
0.7545999999999999

>  <TPSA>  (1018) 
63.32000000000001

>  <POPULARITY>  (1018) 
11.1

>  <PROTECTED>  (1018) 
TRUE

>  <SMILES>  (1018) 
N[C@@](C)(CCC=C)C(=O)O

>  <INCHIKEY>  (1018) 
OQVMALDNOMXRAP-ZETCQYMHSA-N

$$$$
Npentyl-G
     RDKit          2D

 10  9  0  0  0  0  0  0  0  0999 V2000
    0.9213    0.1695    0.0000 N   0  0  0  0  0  0  0  0  0  0  0  0
   -0.4208   -0.5004    0.0000 C   0  0  0  0  0  0  0  0  0  0  0  0
   -1.6720    0.3269    0.0000 C   0  0  0  0  0  0  0  0  0  0  0  0
   -3.0141   -0.3430    0.0000 C   0  0  0  0  0  0  0  0  0  0  0  0
   -4.2653    0.4843    0.0000 C   0  0  0  0  0  0  0  0  0  0  0  0
   -5.6074   -0.1857    0.0000 C   0  0  0  0  0  0  0  0  0  0  0  0
    2.1725   -0.6578    0.0000 C   0  0  0  0  0  0  0  0  0  0  0  0
    3.5146    0.0121    0.0000 C   0  0  0  0  0  0  0  0  0  0  0  0
    3.6055    1.5094    0.0000 O   0  0  0  0  0  0  0  0  0  0  0  0
    4.7658   -0.8152    0.0000 O   0  0  0  0  0  0  0  0  0  0  0  0
  1  2  1  0
  2  3  1  0
  3  4  1  0
  4  5  1  0
  5  6  1  0
  1  7  1  0
  7  8  1  0
  8  9  2  0
  8 10  1  0
M  END
>  <rName>  (1019) 
Npentyl-G

>  <PQ_SYMBOL>  (1019) 
Npentyl-G

>  <FULL_NAME>  (1019) 
2-(pentylamino)acetic acid

>  <IUPAC_CONDENSED>  (1019) 
pentyl-Gly

>  <IUPAC>  (1019) 
2-(pentylamino)acetic acid

>  <TYPE>  (1019) 
Backbone

>  <CLASS>  (1019) 
alpha

>  <ANALOG>  (1019) 
Gly

>  <MOL_WT>  (1019) 
145.202

>  <LOGP>  (1019) 
0.8507999999999998

>  <TPSA>  (1019) 
49.33

>  <POPULARITY>  (1019) 
21.3

>  <PROTECTED>  (1019) 
TRUE

>  <SMILES>  (1019) 
N(CCCCC)CC(=O)O

>  <INCHIKEY>  (1019) 
AHLFJIALFLSDAQ-UHFFFAOYSA-N

$$$$
Phe_4Ph_2Me
     RDKit          2D

 19 20  0  0  0  0  0  0  0  0999 V2000
   -3.3749    1.6701    0.0000 N   0  0  0  0  0  0  0  0  0  0  0  0
   -3.9688    0.2927    0.0000 C   0  0  0  0  0  0  0  0  0  0  0  0
   -3.0729   -0.9104    0.0000 C   0  0  0  0  0  0  0  0  0  0  0  0
   -1.5831   -0.7360    0.0000 C   0  0  0  0  0  0  0  0  0  0  0  0
   -0.9892    0.6414    0.0000 C   0  0  0  0  0  0  0  0  0  0  0  0
    0.5007    0.8158    0.0000 C   0  0  0  0  0  0  0  0  0  0  0  0
    1.3966   -0.3872    0.0000 C   0  0  0  0  0  0  0  0  0  0  0  0
    0.8027   -1.7647    0.0000 C   0  0  0  0  0  0  0  0  0  0  0  0
   -0.6871   -1.9390    0.0000 C   0  0  0  0  0  0  0  0  0  0  0  0
    2.8864   -0.2129    0.0000 C   0  0  0  0  0  0  0  0  0  0  0  0
    3.7823   -1.4159    0.0000 C   0  0  0  0  0  0  0  0  0  0  0  0
    5.2722   -1.2415    0.0000 C   0  0  0  0  0  0  0  0  0  0  0  0
    5.8661    0.1359    0.0000 C   0  0  0  0  0  0  0  0  0  0  0  0
    4.9702    1.3389    0.0000 C   0  0  0  0  0  0  0  0  0  0  0  0
    3.4803    1.1646    0.0000 C   0  0  0  0  0  0  0  0  0  0  0  0
    2.5844    2.3676    0.0000 C   0  0  0  0  0  0  0  0  0  0  0  0
   -5.4587    0.1183    0.0000 C   0  0  0  0  0  0  0  0  0  0  0  0
   -6.0526   -1.2591    0.0000 O   0  0  0  0  0  0  0  0  0  0  0  0
   -6.3546    1.3214    0.0000 O   0  0  0  0  0  0  0  0  0  0  0  0
  2  1  1  1
  2  3  1  0
  3  4  1  0
  4  5  1  0
  5  6  2  0
  6  7  1  0
  7  8  2  0
  8  9  1  0
  7 10  1  0
 10 11  2  0
 11 12  1  0
 12 13  2  0
 13 14  1  0
 14 15  2  0
 15 16  1  0
  2 17  1  0
 17 18  2  0
 17 19  1  0
  9  4  2  0
 15 10  1  0
M  END
>  <rName>  (1020) 
Phe_4Ph_2Me

>  <PQ_SYMBOL>  (1020) 
Phe_4Ph_2Me

>  <FULL_NAME>  (1020) 
(2S)-2-amino-3-[4-(2-methylphenyl)phenyl]propanoic acid

>  <IUPAC_CONDENSED>  (1020) 
Phe(4-Ph(2-Me))

>  <IUPAC>  (1020) 
(2S)-2-amino-3-(4-(2-methylphenyl)phenyl)propanoic acid

>  <TYPE>  (1020) 
Backbone

>  <CLASS>  (1020) 
alpha

>  <ANALOG>  (1020) 
Phe

>  <MOL_WT>  (1020) 
255.31699999999998

>  <LOGP>  (1020) 
2.6164200000000006

>  <TPSA>  (1020) 
63.32000000000001

>  <POPULARITY>  (1020) 
13.6

>  <PROTECTED>  (1020) 
TRUE

>  <SMILES>  (1020) 
N[C@@H](Cc1(ccc(cc1)c2(ccccc2C)))C(=O)O

>  <INCHIKEY>  (1020) 
UTGOGZMACBMWOF-HNNXBMFYSA-N

$$$$
Nbut3enyl-G
     RDKit          2D

  9  8  0  0  0  0  0  0  0  0999 V2000
   -0.2960    0.1534    0.0000 N   0  0  0  0  0  0  0  0  0  0  0  0
    1.0358   -0.5368    0.0000 C   0  0  0  0  0  0  0  0  0  0  0  0
    2.2994    0.2714    0.0000 C   0  0  0  0  0  0  0  0  0  0  0  0
    3.6312   -0.4188    0.0000 C   0  0  0  0  0  0  0  0  0  0  0  0
    4.8948    0.3895    0.0000 C   0  0  0  0  0  0  0  0  0  0  0  0
   -1.5596   -0.6549    0.0000 C   0  0  0  0  0  0  0  0  0  0  0  0
   -2.8913    0.0353    0.0000 C   0  0  0  0  0  0  0  0  0  0  0  0
   -2.9595    1.5338    0.0000 O   0  0  0  0  0  0  0  0  0  0  0  0
   -4.1550   -0.7729    0.0000 O   0  0  0  0  0  0  0  0  0  0  0  0
  1  2  1  0
  2  3  1  0
  3  4  1  0
  4  5  2  0
  1  6  1  0
  6  7  1  0
  7  8  2  0
  7  9  1  0
M  END
>  <rName>  (1021) 
Nbut3enyl-G

>  <PQ_SYMBOL>  (1021) 
Nbut3enyl-G

>  <FULL_NAME>  (1021) 
2-(but-3-enylamino)acetic acid

>  <IUPAC_CONDENSED>  (1021) 
but-3-enyl-Gly

>  <IUPAC>  (1021) 
2-((but-3-en-1-yl)amino)acetic acid

>  <TYPE>  (1021) 
Backbone

>  <CLASS>  (1021) 
alpha

>  <ANALOG>  (1021) 
Gly

>  <MOL_WT>  (1021) 
129.15900000000002

>  <LOGP>  (1021) 
0.23670000000000008

>  <TPSA>  (1021) 
49.33

>  <POPULARITY>  (1021) 
16.3

>  <PROTECTED>  (1021) 
TRUE

>  <SMILES>  (1021) 
N(CCC=C)CC(=O)O

>  <INCHIKEY>  (1021) 
WVFFPDNNNZJDQR-UHFFFAOYSA-N

$$$$
Arg_cPr
     RDKit          2D

 15 15  0  0  0  0  0  0  0  0999 V2000
   -4.0082   -1.8726    0.0000 N   0  0  0  0  0  0  0  0  0  0  0  0
   -3.9078   -0.3760    0.0000 C   0  0  0  0  0  0  0  0  0  0  0  0
   -2.5615    0.2854    0.0000 C   0  0  0  0  0  0  0  0  0  0  0  0
   -1.3156   -0.5498    0.0000 C   0  0  0  0  0  0  0  0  0  0  0  0
    0.0307    0.1116    0.0000 C   0  0  0  0  0  0  0  0  0  0  0  0
    1.2767   -0.7237    0.0000 N   0  0  0  0  0  0  0  0  0  0  0  0
    2.6230   -0.0623    0.0000 C   0  0  0  0  0  0  0  0  0  0  0  0
    2.7234    1.4344    0.0000 N   0  0  0  0  0  0  0  0  0  0  0  0
    3.8689   -0.8975    0.0000 N   0  0  0  0  0  0  0  0  0  0  0  0
    5.2152   -0.2361    0.0000 C   0  0  0  0  0  0  0  0  0  0  0  0
    6.7119   -0.3365    0.0000 C   0  0  0  0  0  0  0  0  0  0  0  0
    6.0505    1.0098    0.0000 C   0  0  0  0  0  0  0  0  0  0  0  0
   -5.1538    0.4593    0.0000 C   0  0  0  0  0  0  0  0  0  0  0  0
   -5.0534    1.9559    0.0000 O   0  0  0  0  0  0  0  0  0  0  0  0
   -6.5001   -0.2021    0.0000 O   0  0  0  0  0  0  0  0  0  0  0  0
  2  1  1  6
  2  3  1  0
  3  4  1  0
  4  5  1  0
  5  6  1  0
  6  7  1  0
  7  8  2  0
  7  9  1  0
  9 10  1  0
 10 11  1  0
 11 12  1  0
  2 13  1  0
 13 14  2  0
 13 15  1  0
 12 10  1  0
M  END
>  <rName>  (1022) 
Arg_cPr

>  <PQ_SYMBOL>  (1022) 
Arg_cPr

>  <FULL_NAME>  (1022) 
(2S)-2-amino-5-[[amino-(cyclopropylamino)methylidene]amino]pentanoic acid

>  <IUPAC_CONDENSED>  (1022) 
Arg(cPr)

>  <IUPAC>  (1022) 
(2S)-2-amino-5-(((cyclopropylamino)(imino)methyl)amino)pentanoic acid

>  <TYPE>  (1022) 
Backbone

>  <CLASS>  (1022) 
alpha

>  <ANALOG>  (1022) 
Arg

>  <MOL_WT>  (1022) 
214.26899999999998

>  <LOGP>  (1022) 
-0.5451299999999988

>  <TPSA>  (1022) 
111.23

>  <POPULARITY>  (1022) 
4.8

>  <PROTECTED>  (1022) 
TRUE

>  <SMILES>  (1022) 
N[C@@H](CCCNC(=N)NC1(CC1))C(=O)O

>  <INCHIKEY>  (1022) 
HXGYVYKZSPFEOY-ZETCQYMHSA-N

$$$$
Leu_45dehydro
     RDKit          2D

  9  8  0  0  0  0  0  0  0  0999 V2000
    0.2826   -1.7410    0.0000 N   0  0  0  0  0  0  0  0  0  0  0  0
    0.5402   -0.2633    0.0000 C   0  0  0  0  0  0  0  0  0  0  0  0
   -0.6108    0.6986    0.0000 C   0  0  0  0  0  0  0  0  0  0  0  0
   -2.0193    0.1828    0.0000 C   0  0  0  0  0  0  0  0  0  0  0  0
   -3.1703    1.1447    0.0000 C   0  0  0  0  0  0  0  0  0  0  0  0
   -2.2769   -1.2950    0.0000 C   0  0  0  0  0  0  0  0  0  0  0  0
    1.9487    0.2525    0.0000 C   0  0  0  0  0  0  0  0  0  0  0  0
    2.2062    1.7302    0.0000 O   0  0  0  0  0  0  0  0  0  0  0  0
    3.0997   -0.7094    0.0000 O   0  0  0  0  0  0  0  0  0  0  0  0
  2  1  1  1
  2  3  1  0
  3  4  1  0
  4  5  2  0
  4  6  1  0
  2  7  1  0
  7  8  2  0
  7  9  1  0
M  END
>  <rName>  (1023) 
Leu_45dehydro

>  <PQ_SYMBOL>  (1023) 
Leu_45dehydro

>  <FULL_NAME>  (1023) 
(2S)-2-amino-4-methylpent-4-enoic acid

>  <IUPAC_CONDENSED>  (1023) 
Leu(4,5-dehydro)

>  <IUPAC>  (1023) 
(2S)-2-amino-4-methylpent-4-enoic acid

>  <TYPE>  (1023) 
Backbone

>  <CLASS>  (1023) 
alpha

>  <ANALOG>  (1023) 
Leu

>  <MOL_WT>  (1023) 
129.159

>  <LOGP>  (1023) 
0.3645

>  <TPSA>  (1023) 
63.32000000000001

>  <POPULARITY>  (1023) 
16.8

>  <PROTECTED>  (1023) 
TRUE

>  <SMILES>  (1023) 
N[C@@H](CC(=C)C)C(=O)O

>  <INCHIKEY>  (1023) 
PABWDKROPVYJBH-YFKPBYRVSA-N

$$$$
Ala_pyrazol4yl
     RDKit          2D

 11 11  0  0  0  0  0  0  0  0999 V2000
   -0.9461    1.6947    0.0000 N   0  0  0  0  0  0  0  0  0  0  0  0
   -1.3100    0.2395    0.0000 C   0  0  0  0  0  0  0  0  0  0  0  0
   -0.2317   -0.8032    0.0000 C   0  0  0  0  0  0  0  0  0  0  0  0
    1.2105   -0.3908    0.0000 C   0  0  0  0  0  0  0  0  0  0  0  0
    2.3919   -1.3151    0.0000 C   0  0  0  0  0  0  0  0  0  0  0  0
    3.6360   -0.4772    0.0000 N   0  0  0  0  0  0  0  0  0  0  0  0
    3.2236    0.9650    0.0000 N   0  0  0  0  0  0  0  0  0  0  0  0
    1.7245    1.0184    0.0000 C   0  0  0  0  0  0  0  0  0  0  0  0
   -2.7522   -0.1729    0.0000 C   0  0  0  0  0  0  0  0  0  0  0  0
   -3.1161   -1.6281    0.0000 O   0  0  0  0  0  0  0  0  0  0  0  0
   -3.8304    0.8698    0.0000 O   0  0  0  0  0  0  0  0  0  0  0  0
  2  1  1  1
  2  3  1  0
  3  4  1  0
  4  5  1  0
  5  6  2  0
  6  7  1  0
  7  8  1  0
  2  9  1  0
  9 10  2  0
  9 11  1  0
  8  4  2  0
M  END
>  <rName>  (1024) 
Ala_pyrazol4yl

>  <PQ_SYMBOL>  (1024) 
Ala_pyrazol4yl

>  <FULL_NAME>  (1024) 
(2S)-2-amino-3-(1H-pyrazol-4-yl)propanoic acid

>  <IUPAC_CONDENSED>  (1024) 
Ala(pyrazol-4-yl)

>  <IUPAC>  (1024) 
(2S)-2-amino-3-(1H-pyrazol-4-yl)propanoic acid

>  <TYPE>  (1024) 
Backbone

>  <CLASS>  (1024) 
alpha

>  <ANALOG>  (1024) 
Phe

>  <MOL_WT>  (1024) 
155.15699999999998

>  <LOGP>  (1024) 
-0.6359000000000001

>  <TPSA>  (1024) 
92

>  <POPULARITY>  (1024) 
8.2

>  <PROTECTED>  (1024) 
TRUE

>  <SMILES>  (1024) 
N[C@@H](Cc1(cn[nH]c1))C(=O)O

>  <INCHIKEY>  (1024) 
CRANRHDFXPQPHR-YFKPBYRVSA-N

$$$$
D-Lys_iPr
     RDKit          2D

 13 12  0  0  0  0  0  0  0  0999 V2000
    2.9072   -1.8790    0.0000 N   0  0  0  0  0  0  0  0  0  0  0  0
    2.9824   -0.3808    0.0000 C   0  0  0  0  0  0  0  0  0  0  0  0
    1.7226    0.4334    0.0000 C   0  0  0  0  0  0  0  0  0  0  0  0
    0.3876   -0.2505    0.0000 C   0  0  0  0  0  0  0  0  0  0  0  0
   -0.8722    0.5637    0.0000 C   0  0  0  0  0  0  0  0  0  0  0  0
   -2.2072   -0.1202    0.0000 C   0  0  0  0  0  0  0  0  0  0  0  0
   -3.4670    0.6940    0.0000 N   0  0  0  0  0  0  0  0  0  0  0  0
   -4.8020    0.0101    0.0000 C   0  0  0  0  0  0  0  0  0  0  0  0
   -6.0618    0.8243    0.0000 C   0  0  0  0  0  0  0  0  0  0  0  0
   -4.8772   -1.4880    0.0000 C   0  0  0  0  0  0  0  0  0  0  0  0
    4.3175    0.3030    0.0000 C   0  0  0  0  0  0  0  0  0  0  0  0
    4.3927    1.8012    0.0000 O   0  0  0  0  0  0  0  0  0  0  0  0
    5.5772   -0.5112    0.0000 O   0  0  0  0  0  0  0  0  0  0  0  0
  2  1  1  6
  2  3  1  0
  3  4  1  0
  4  5  1  0
  5  6  1  0
  6  7  1  0
  7  8  1  0
  8  9  1  0
  8 10  1  0
  2 11  1  0
 11 12  2  0
 11 13  1  0
M  END
>  <rName>  (1025) 
D-Lys_iPr

>  <PQ_SYMBOL>  (1025) 
D-Lys_iPr

>  <FULL_NAME>  (1025) 
(2R)-2-amino-6-(propan-2-ylamino)hexanoic acid

>  <IUPAC_CONDENSED>  (1025) 
D-Lys(iPr)

>  <IUPAC>  (1025) 
(2R)-2-amino-6-((propan-2-yl)amino)hexanoic acid

>  <TYPE>  (1025) 
Backbone

>  <CLASS>  (1025) 
alpha

>  <ANALOG>  (1025) 
Lys

>  <MOL_WT>  (1025) 
188.271

>  <LOGP>  (1025) 
0.5665999999999998

>  <TPSA>  (1025) 
75.35

>  <POPULARITY>  (1025) 
10.5

>  <PROTECTED>  (1025) 
TRUE

>  <SMILES>  (1025) 
N[C@H](CCCCNC(C)C)C(=O)O

>  <INCHIKEY>  (1025) 
CBAWNLIZBXJSFS-MRVPVSSYSA-N

$$$$
Cys_Et
     RDKit          2D

  9  8  0  0  0  0  0  0  0  0999 V2000
    0.7616   -1.8791    0.0000 N   0  0  0  0  0  0  0  0  0  0  0  0
    0.8459   -0.3815    0.0000 C   0  0  0  0  0  0  0  0  0  0  0  0
   -0.4089    0.4403    0.0000 C   0  0  0  0  0  0  0  0  0  0  0  0
   -1.7480   -0.2354    0.0000 S   0  0  0  0  0  0  0  0  0  0  0  0
   -3.0029    0.5864    0.0000 C   0  0  0  0  0  0  0  0  0  0  0  0
   -4.3420   -0.0894    0.0000 C   0  0  0  0  0  0  0  0  0  0  0  0
    2.1851    0.2943    0.0000 C   0  0  0  0  0  0  0  0  0  0  0  0
    2.2694    1.7919    0.0000 O   0  0  0  0  0  0  0  0  0  0  0  0
    3.4399   -0.5275    0.0000 O   0  0  0  0  0  0  0  0  0  0  0  0
  2  1  1  1
  2  3  1  0
  3  4  1  0
  4  5  1  0
  5  6  1  0
  2  7  1  0
  7  8  2  0
  7  9  1  0
M  END
>  <rName>  (1026) 
Cys_Et

>  <PQ_SYMBOL>  (1026) 
Cys_Et

>  <FULL_NAME>  (1026) 
(2R)-2-amino-3-ethylsulfanylpropanoic acid

>  <IUPAC_CONDENSED>  (1026) 
Cys(Et)

>  <IUPAC>  (1026) 
(2R)-2-amino-3-(ethylsulfanyl)propanoic acid

>  <TYPE>  (1026) 
Backbone

>  <CLASS>  (1026) 
alpha

>  <ANALOG>  (1026) 
Cys

>  <MOL_WT>  (1026) 
149.215

>  <LOGP>  (1026) 
0.1513999999999997

>  <TPSA>  (1026) 
63.32000000000001

>  <POPULARITY>  (1026) 
28.8

>  <PROTECTED>  (1026) 
TRUE

>  <SMILES>  (1026) 
N[C@@H](CSCC)C(=O)O

>  <INCHIKEY>  (1026) 
ULXKXLZEOGLCRJ-BYPYZUCNSA-N

$$$$
Abu_CF3
     RDKit          2D

 11 10  0  0  0  0  0  0  0  0999 V2000
    1.5275   -1.9644    0.0000 N   0  0  0  0  0  0  0  0  0  0  0  0
    1.4450   -0.4666    0.0000 C   0  0  0  0  0  0  0  0  0  0  0  0
    0.1067    0.2107    0.0000 C   0  0  0  0  0  0  0  0  0  0  0  0
   -1.1491   -0.6096    0.0000 C   0  0  0  0  0  0  0  0  0  0  0  0
   -2.4875    0.0678    0.0000 C   0  0  0  0  0  0  0  0  0  0  0  0
   -3.8258    0.7452    0.0000 F   0  0  0  0  0  0  0  0  0  0  0  0
   -3.1649   -1.2706    0.0000 F   0  0  0  0  0  0  0  0  0  0  0  0
   -1.8101    1.4061    0.0000 F   0  0  0  0  0  0  0  0  0  0  0  0
    2.7008    0.3537    0.0000 C   0  0  0  0  0  0  0  0  0  0  0  0
    2.6183    1.8514    0.0000 O   0  0  0  0  0  0  0  0  0  0  0  0
    4.0391   -0.3237    0.0000 O   0  0  0  0  0  0  0  0  0  0  0  0
  2  1  1  1
  2  3  1  0
  3  4  1  0
  4  5  1  0
  5  6  1  0
  5  7  1  0
  5  8  1  0
  2  9  1  0
  9 10  2  0
  9 11  1  0
M  END
>  <rName>  (1027) 
Abu_CF3

>  <PQ_SYMBOL>  (1027) 
Abu_CF3

>  <FULL_NAME>  (1027) 
(2S)-2-amino-5,5,5-trifluoropentanoic acid

>  <IUPAC_CONDENSED>  (1027) 
Abu(CF3)

>  <IUPAC>  (1027) 
(2S)-2-amino-5,5,5-trifluoropentanoic acid

>  <TYPE>  (1027) 
Backbone

>  <CLASS>  (1027) 
alpha

>  <ANALOG>  (1027) 
X

>  <MOL_WT>  (1027) 
171.11800000000002

>  <LOGP>  (1027) 
0.7407999999999999

>  <TPSA>  (1027) 
63.32000000000001

>  <POPULARITY>  (1027) 
13.5

>  <PROTECTED>  (1027) 
TRUE

>  <SMILES>  (1027) 
N[C@@H](CCC(F)(F)F)C(=O)O

>  <INCHIKEY>  (1027) 
KTZZIDWVKLDWBF-VKHMYHEASA-N

$$$$
NMe-Ac5c
     RDKit          2D

 10 10  0  0  0  0  0  0  0  0999 V2000
    0.7424   -1.3457    0.0000 N   0  0  0  0  0  0  0  0  0  0  0  0
    0.0009   -2.6496    0.0000 C   0  0  0  0  0  0  0  0  0  0  0  0
   -0.0160   -0.0516    0.0000 C   0  0  0  0  0  0  0  0  0  0  0  0
   -0.4888    1.3719    0.0000 C   0  0  0  0  0  0  0  0  0  0  0  0
   -1.9888    1.3622    0.0000 C   0  0  0  0  0  0  0  0  0  0  0  0
   -2.4430   -0.0674    0.0000 C   0  0  0  0  0  0  0  0  0  0  0  0
   -1.2238   -0.9412    0.0000 C   0  0  0  0  0  0  0  0  0  0  0  0
    1.3503    0.5674    0.0000 C   0  0  0  0  0  0  0  0  0  0  0  0
    1.4973    2.0602    0.0000 O   0  0  0  0  0  0  0  0  0  0  0  0
    2.5695   -0.3063    0.0000 O   0  0  0  0  0  0  0  0  0  0  0  0
  1  2  1  0
  1  3  1  0
  3  4  1  0
  4  5  1  0
  5  6  1  0
  6  7  1  0
  3  8  1  0
  8  9  2  0
  8 10  1  0
  7  3  1  0
M  END
>  <rName>  (1028) 
NMe-Ac5c

>  <PQ_SYMBOL>  (1028) 
NMe-Ac5c

>  <FULL_NAME>  (1028) 
methyl 1-amino-1-carboxycyclopentane

>  <IUPAC_CONDENSED>  (1028) 
Me-Ac5c

>  <IUPAC>  (1028) 
1-(methylamino)cyclopentanecarboxylic acid

>  <TYPE>  (1028) 
Backbone

>  <CLASS>  (1028) 
alpha

>  <ANALOG>  (1028) 
X

>  <MOL_WT>  (1028) 
143.186

>  <LOGP>  (1028) 
0.6032

>  <TPSA>  (1028) 
49.33

>  <POPULARITY>  (1028) 
16.1

>  <PROTECTED>  (1028) 
TRUE

>  <SMILES>  (1028) 
N(C)C1(CCCC1)C(=O)O

>  <INCHIKEY>  (1028) 
HENGJKIYGDMCLP-UHFFFAOYSA-N

$$$$
aMePhe_26diF
     RDKit          2D

 15 15  0  0  0  0  0  0  0  0999 V2000
   -0.6309    1.4823    0.0000 N   0  0  0  0  0  0  0  0  0  0  0  0
   -1.7018    0.4319    0.0000 C   0  0  0  0  0  0  0  0  0  0  0  0
   -2.7521    1.5027    0.0000 C   0  0  0  0  0  0  0  0  0  0  0  0
   -0.6514   -0.6389    0.0000 C   0  0  0  0  0  0  0  0  0  0  0  0
    0.8012   -0.2647    0.0000 C   0  0  0  0  0  0  0  0  0  0  0  0
    1.2034    1.1804    0.0000 C   0  0  0  0  0  0  0  0  0  0  0  0
    0.1530    2.2512    0.0000 F   0  0  0  0  0  0  0  0  0  0  0  0
    2.6559    1.5546    0.0000 C   0  0  0  0  0  0  0  0  0  0  0  0
    3.7063    0.4838    0.0000 C   0  0  0  0  0  0  0  0  0  0  0  0
    3.3041   -0.9613    0.0000 C   0  0  0  0  0  0  0  0  0  0  0  0
    1.8516   -1.3355    0.0000 C   0  0  0  0  0  0  0  0  0  0  0  0
    1.4494   -2.7806    0.0000 F   0  0  0  0  0  0  0  0  0  0  0  0
   -2.7726   -0.6185    0.0000 C   0  0  0  0  0  0  0  0  0  0  0  0
   -4.2177   -0.2163    0.0000 O   0  0  0  0  0  0  0  0  0  0  0  0
   -2.3984   -2.0711    0.0000 O   0  0  0  0  0  0  0  0  0  0  0  0
  1  2  1  0
  2  3  1  6
  2  4  1  0
  4  5  1  0
  5  6  2  0
  6  7  1  0
  6  8  1  0
  8  9  2  0
  9 10  1  0
 10 11  2  0
 11 12  1  0
  2 13  1  0
 13 14  2  0
 13 15  1  0
 11  5  1  0
M  END
>  <rName>  (1029) 
aMePhe_26diF

>  <PQ_SYMBOL>  (1029) 
aMePhe_26diF

>  <FULL_NAME>  (1029) 
(2S)-2-amino-3-(2,6-difluorophenyl)-2-methylpropanoic acid

>  <IUPAC_CONDENSED>  (1029) 
aMePhe(2,6-diF)

>  <IUPAC>  (1029) 
(2S)-2-amino-2-((2,6-difluorophenyl)methyl)propanoic acid

>  <TYPE>  (1029) 
Backbone

>  <CLASS>  (1029) 
alpha

>  <ANALOG>  (1029) 
Phe

>  <MOL_WT>  (1029) 
215.19899999999998

>  <LOGP>  (1029) 
1.3093

>  <TPSA>  (1029) 
63.32000000000001

>  <POPULARITY>  (1029) 
11.4

>  <PROTECTED>  (1029) 
TRUE

>  <SMILES>  (1029) 
N[C@@](C)(Cc1(c(F)cccc1F))C(=O)O

>  <INCHIKEY>  (1029) 
WEWMIQSBLMNNMQ-JTQLQIEISA-N

$$$$
Phe_4EtO2H
     RDKit          2D

 16 16  0  0  0  0  0  0  0  0999 V2000
   -2.8646    1.6700    0.0000 N   0  0  0  0  0  0  0  0  0  0  0  0
   -3.2013    0.2083    0.0000 C   0  0  0  0  0  0  0  0  0  0  0  0
   -2.1038   -0.8141    0.0000 C   0  0  0  0  0  0  0  0  0  0  0  0
   -0.6696   -0.3749    0.0000 C   0  0  0  0  0  0  0  0  0  0  0  0
   -0.3329    1.0868    0.0000 C   0  0  0  0  0  0  0  0  0  0  0  0
    1.1014    1.5261    0.0000 C   0  0  0  0  0  0  0  0  0  0  0  0
    2.1989    0.5036    0.0000 C   0  0  0  0  0  0  0  0  0  0  0  0
    1.8622   -0.9581    0.0000 C   0  0  0  0  0  0  0  0  0  0  0  0
    0.4280   -1.3974    0.0000 C   0  0  0  0  0  0  0  0  0  0  0  0
    3.6332    0.9429    0.0000 C   0  0  0  0  0  0  0  0  0  0  0  0
    4.7307   -0.0796    0.0000 C   0  0  0  0  0  0  0  0  0  0  0  0
    4.3940   -1.5413    0.0000 O   0  0  0  0  0  0  0  0  0  0  0  0
    6.1649    0.3597    0.0000 O   0  0  0  0  0  0  0  0  0  0  0  0
   -4.6356   -0.2309    0.0000 C   0  0  0  0  0  0  0  0  0  0  0  0
   -4.9723   -1.6927    0.0000 O   0  0  0  0  0  0  0  0  0  0  0  0
   -5.7331    0.7915    0.0000 O   0  0  0  0  0  0  0  0  0  0  0  0
  2  1  1  1
  2  3  1  0
  3  4  1  0
  4  5  1  0
  5  6  2  0
  6  7  1  0
  7  8  2  0
  8  9  1  0
  7 10  1  0
 10 11  1  0
 11 12  2  0
 11 13  1  0
  2 14  1  0
 14 15  2  0
 14 16  1  0
  9  4  2  0
M  END
>  <rName>  (1030) 
Phe_4EtO2H

>  <PQ_SYMBOL>  (1030) 
Phe_4EtO2H

>  <FULL_NAME>  (1030) 
(2S)-2-amino-3-[4-(carboxymethyl)phenyl]propanoic acid

>  <IUPAC_CONDENSED>  (1030) 
Phe(4-EtO2H)

>  <IUPAC>  (1030) 
(2S)-2-amino-3-(4-(2-hydroxy-2-oxoethyl)phenyl)propanoic acid

>  <TYPE>  (1030) 
Backbone

>  <CLASS>  (1030) 
alpha

>  <ANALOG>  (1030) 
Phe

>  <MOL_WT>  (1030) 
223.22799999999995

>  <LOGP>  (1030) 
0.26809999999999967

>  <TPSA>  (1030) 
100.62000000000002

>  <POPULARITY>  (1030) 
18.4

>  <PROTECTED>  (1030) 
TRUE

>  <SMILES>  (1030) 
N[C@@H](Cc1(ccc(cc1)CC(=O)O))C(=O)O

>  <INCHIKEY>  (1030) 
LJHYWUVYIKCPGU-VIFPVBQESA-N

$$$$
Trp_OMe
     RDKit          2D

 17 18  0  0  0  0  0  0  0  0999 V2000
   -2.6158   -1.6017    0.0000 N   0  0  0  0  0  0  0  0  0  0  0  0
   -2.7728   -0.1099    0.0000 C   0  0  0  0  0  0  0  0  0  0  0  0
   -1.5594    0.7719    0.0000 C   0  0  0  0  0  0  0  0  0  0  0  0
   -0.1890    0.1620    0.0000 C   0  0  0  0  0  0  0  0  0  0  0  0
    0.1231   -1.3052    0.0000 C   0  0  0  0  0  0  0  0  0  0  0  0
    1.6149   -1.4618    0.0000 N   0  0  0  0  0  0  0  0  0  0  0  0
    2.3650   -2.7607    0.0000 O   0  0  0  0  0  0  0  0  0  0  0  0
    1.6152   -4.0599    0.0000 C   0  0  0  0  0  0  0  0  0  0  0  0
    2.2248   -0.0914    0.0000 C   0  0  0  0  0  0  0  0  0  0  0  0
    3.6513    0.3723    0.0000 C   0  0  0  0  0  0  0  0  0  0  0  0
    3.9630    1.8396    0.0000 C   0  0  0  0  0  0  0  0  0  0  0  0
    2.8481    2.8431    0.0000 C   0  0  0  0  0  0  0  0  0  0  0  0
    1.4216    2.3794    0.0000 C   0  0  0  0  0  0  0  0  0  0  0  0
    1.1099    0.9122    0.0000 C   0  0  0  0  0  0  0  0  0  0  0  0
   -4.1432    0.5000    0.0000 C   0  0  0  0  0  0  0  0  0  0  0  0
   -4.3002    1.9918    0.0000 O   0  0  0  0  0  0  0  0  0  0  0  0
   -5.3566   -0.3818    0.0000 O   0  0  0  0  0  0  0  0  0  0  0  0
  2  1  1  6
  2  3  1  0
  3  4  1  0
  4  5  2  0
  5  6  1  0
  6  7  1  0
  7  8  1  0
  6  9  1  0
  9 10  2  0
 10 11  1  0
 11 12  2  0
 12 13  1  0
 13 14  2  0
  2 15  1  0
 15 16  2  0
 15 17  1  0
 14  4  1  0
 14  9  1  0
M  END
>  <rName>  (1031) 
Trp_OMe

>  <PQ_SYMBOL>  (1031) 
Trp_OMe

>  <FULL_NAME>  (1031) 
(2S)-2-amino-3-(1-methoxyindol-3-yl)propanoic acid

>  <IUPAC_CONDENSED>  (1031) 
Trp(OMe)

>  <IUPAC>  (1031) 
(2S)-2-amino-3-(1-methoxy-1H-indol-3-yl)propanoic acid

>  <TYPE>  (1031) 
Backbone

>  <CLASS>  (1031) 
alpha

>  <ANALOG>  (1031) 
Trp

>  <MOL_WT>  (1031) 
234.255

>  <LOGP>  (1031) 
0.6540999999999995

>  <TPSA>  (1031) 
77.48

>  <POPULARITY>  (1031) 
12.8

>  <PROTECTED>  (1031) 
FALSE

>  <SMILES>  (1031) 
N[C@@H](Cc1(cn(OC)c2(ccccc12)))C(=O)O

>  <INCHIKEY>  (1031) 
ZZKJLERBXNLMTR-JTQLQIEISA-N

$$$$
Tyr_35diI
     RDKit          2D

 15 15  0  0  0  0  0  0  0  0999 V2000
   -2.0609    1.6226    0.0000 N   0  0  0  0  0  0  0  0  0  0  0  0
   -2.4694    0.1793    0.0000 C   0  0  0  0  0  0  0  0  0  0  0  0
   -1.4237   -0.8961    0.0000 C   0  0  0  0  0  0  0  0  0  0  0  0
    0.0305   -0.5283    0.0000 C   0  0  0  0  0  0  0  0  0  0  0  0
    0.4390    0.9150    0.0000 C   0  0  0  0  0  0  0  0  0  0  0  0
    1.8932    1.2829    0.0000 C   0  0  0  0  0  0  0  0  0  0  0  0
    2.3017    2.7262    0.0000 I   0  0  0  0  0  0  0  0  0  0  0  0
    2.9389    0.2075    0.0000 C   0  0  0  0  0  0  0  0  0  0  0  0
    4.3931    0.5753    0.0000 O   0  0  0  0  0  0  0  0  0  0  0  0
    2.5304   -1.2358    0.0000 C   0  0  0  0  0  0  0  0  0  0  0  0
    3.5760   -2.3113    0.0000 I   0  0  0  0  0  0  0  0  0  0  0  0
    1.0762   -1.6037    0.0000 C   0  0  0  0  0  0  0  0  0  0  0  0
   -3.9236   -0.1886    0.0000 C   0  0  0  0  0  0  0  0  0  0  0  0
   -4.3321   -1.6319    0.0000 O   0  0  0  0  0  0  0  0  0  0  0  0
   -4.9693    0.8868    0.0000 O   0  0  0  0  0  0  0  0  0  0  0  0
  2  1  1  1
  2  3  1  0
  3  4  1  0
  4  5  2  0
  5  6  1  0
  6  7  1  0
  6  8  2  0
  8  9  1  0
  8 10  1  0
 10 11  1  0
 10 12  2  0
  2 13  1  0
 13 14  2  0
 13 15  1  0
 12  4  1  0
M  END
>  <rName>  (1032) 
Tyr_35diI

>  <PQ_SYMBOL>  (1032) 
Tyr_35diI

>  <FULL_NAME>  (1032) 
(2S)-2-amino-3-(4-hydroxy-3,5-diiodophenyl)propanoic acid

>  <IUPAC_CONDENSED>  (1032) 
Tyr(3,5-diI)

>  <IUPAC>  (1032) 
(2S)-2-amino-3-(4-hydroxy-3,5-diiodophenyl)propanoic acid

>  <TYPE>  (1032) 
Backbone

>  <CLASS>  (1032) 
alpha

>  <ANALOG>  (1032) 
Tyr

>  <MOL_WT>  (1032) 
432.98300000000006

>  <LOGP>  (1032) 
1.5557999999999998

>  <TPSA>  (1032) 
83.55

>  <POPULARITY>  (1032) 
29.9

>  <PROTECTED>  (1032) 
TRUE

>  <SMILES>  (1032) 
N[C@@H](Cc1(cc(I)c(O)c(I)c1))C(=O)O

>  <INCHIKEY>  (1032) 
NYPYHUZRZVSYKL-ZETCQYMHSA-N

$$$$
NcHexCH2-G
     RDKit          2D

 12 12  0  0  0  0  0  0  0  0999 V2000
   -1.2194   -0.1693    0.0000 N   0  0  0  0  0  0  0  0  0  0  0  0
   -0.0183   -1.0678    0.0000 C   0  0  0  0  0  0  0  0  0  0  0  0
    1.3604   -0.4769    0.0000 C   0  0  0  0  0  0  0  0  0  0  0  0
    1.5380    1.0126    0.0000 C   0  0  0  0  0  0  0  0  0  0  0  0
    2.9167    1.6035    0.0000 C   0  0  0  0  0  0  0  0  0  0  0  0
    4.1178    0.7050    0.0000 C   0  0  0  0  0  0  0  0  0  0  0  0
    3.9402   -0.7845    0.0000 C   0  0  0  0  0  0  0  0  0  0  0  0
    2.5615   -1.3754    0.0000 C   0  0  0  0  0  0  0  0  0  0  0  0
   -2.5981   -0.7603    0.0000 C   0  0  0  0  0  0  0  0  0  0  0  0
   -3.7992    0.1382    0.0000 C   0  0  0  0  0  0  0  0  0  0  0  0
   -3.6216    1.6277    0.0000 O   0  0  0  0  0  0  0  0  0  0  0  0
   -5.1779   -0.4527    0.0000 O   0  0  0  0  0  0  0  0  0  0  0  0
  1  2  1  0
  2  3  1  0
  3  4  1  0
  4  5  1  0
  5  6  1  0
  6  7  1  0
  7  8  1  0
  1  9  1  0
  9 10  1  0
 10 11  2  0
 10 12  1  0
  8  3  1  0
M  END
>  <rName>  (1033) 
NcHexCH2-G

>  <PQ_SYMBOL>  (1033) 
NcHexCH2-G

>  <FULL_NAME>  (1033) 
2-(cyclohexylmethylamino)acetic acid

>  <IUPAC_CONDENSED>  (1033) 
cHexCH2-Gly

>  <IUPAC>  (1033) 
2-(cyclohexylmethylamino)acetic acid

>  <TYPE>  (1033) 
Backbone

>  <CLASS>  (1033) 
alpha

>  <ANALOG>  (1033) 
Gly

>  <MOL_WT>  (1033) 
171.24

>  <LOGP>  (1033) 
1.2409000000000001

>  <TPSA>  (1033) 
49.33

>  <POPULARITY>  (1033) 
17.6

>  <PROTECTED>  (1033) 
TRUE

>  <SMILES>  (1033) 
N(CC1(CCCCC1))CC(=O)O

>  <INCHIKEY>  (1033) 
XQMXBAOAYVXFPQ-UHFFFAOYSA-N

$$$$
Nallyl-G
     RDKit          2D

  8  7  0  0  0  0  0  0  0  0999 V2000
   -0.3069    0.2155    0.0000 N   0  0  0  0  0  0  0  0  0  0  0  0
   -1.6672   -0.4165    0.0000 C   0  0  0  0  0  0  0  0  0  0  0  0
   -2.8948    0.4455    0.0000 C   0  0  0  0  0  0  0  0  0  0  0  0
   -4.2551   -0.1865    0.0000 C   0  0  0  0  0  0  0  0  0  0  0  0
    0.9207   -0.6465    0.0000 C   0  0  0  0  0  0  0  0  0  0  0  0
    2.2810   -0.0145    0.0000 C   0  0  0  0  0  0  0  0  0  0  0  0
    2.4138    1.4796    0.0000 O   0  0  0  0  0  0  0  0  0  0  0  0
    3.5085   -0.8766    0.0000 O   0  0  0  0  0  0  0  0  0  0  0  0
  1  2  1  0
  2  3  1  0
  3  4  2  0
  1  5  1  0
  5  6  1  0
  6  7  2  0
  6  8  1  0
M  END
>  <rName>  (1034) 
Nallyl-G

>  <PQ_SYMBOL>  (1034) 
Nallyl-G

>  <FULL_NAME>  (1034) 
2-(prop-2-enylamino)acetic acid

>  <IUPAC_CONDENSED>  (1034) 
allyl-Gly

>  <IUPAC>  (1034) 
2-((prop-2-en-1-yl)amino)acetic acid

>  <TYPE>  (1034) 
Backbone

>  <CLASS>  (1034) 
alpha

>  <ANALOG>  (1034) 
Gly

>  <MOL_WT>  (1034) 
115.13199999999999

>  <LOGP>  (1034) 
-0.15340000000000026

>  <TPSA>  (1034) 
49.33

>  <POPULARITY>  (1034) 
23.3

>  <PROTECTED>  (1034) 
TRUE

>  <SMILES>  (1034) 
N(CC=C)CC(=O)O

>  <INCHIKEY>  (1034) 
YVWGGGZYGSZDKW-UHFFFAOYSA-N

$$$$
Pro_3SOH
     RDKit          2D

  9  9  0  0  0  0  0  0  0  0999 V2000
   -0.6730   -1.5641    0.0000 N   0  0  0  0  0  0  0  0  0  0  0  0
    0.1113   -0.2855    0.0000 C   0  0  0  0  0  0  0  0  0  0  0  0
   -0.8624    0.8555    0.0000 C   0  0  0  0  0  0  0  0  0  0  0  0
   -0.5115    2.3139    0.0000 O   0  0  0  0  0  0  0  0  0  0  0  0
   -2.2485    0.2821    0.0000 C   0  0  0  0  0  0  0  0  0  0  0  0
   -2.1314   -1.2133    0.0000 C   0  0  0  0  0  0  0  0  0  0  0  0
    1.6067   -0.1685    0.0000 C   0  0  0  0  0  0  0  0  0  0  0  0
    2.2531    1.1851    0.0000 O   0  0  0  0  0  0  0  0  0  0  0  0
    2.4558   -1.4051    0.0000 O   0  0  0  0  0  0  0  0  0  0  0  0
  1  2  1  0
  2  3  1  0
  3  4  1  6
  3  5  1  0
  5  6  1  0
  2  7  1  1
  7  8  2  0
  7  9  1  0
  6  1  1  0
M  END
>  <rName>  (1035) 
Pro_3SOH

>  <PQ_SYMBOL>  (1035) 
Pro_3SOH

>  <FULL_NAME>  (1035) 
(2S,3S)-3-hydroxypyrrolidine-2-carboxylic acid

>  <IUPAC_CONDENSED>  (1035) 
Pro(3S-OH)

>  <IUPAC>  (1035) 
(2S,3S)-3-hydroxypyrrolidine-2-carboxylic acid

>  <TYPE>  (1035) 
Backbone

>  <CLASS>  (1035) 
alpha

>  <ANALOG>  (1035) 
Pro

>  <MOL_WT>  (1035) 
131.13100000000003

>  <LOGP>  (1035) 
-1.2062000000000004

>  <TPSA>  (1035) 
69.56

>  <POPULARITY>  (1035) 
35.3

>  <PROTECTED>  (1035) 
TRUE

>  <SMILES>  (1035) 
N1[C@@H]([C@@H](O)CC1)C(=O)O

>  <INCHIKEY>  (1035) 
BJBUEDPLEOHJGE-IMJSIDKUSA-N

$$$$
His_1Bn
     RDKit          2D

 18 19  0  0  0  0  0  0  0  0999 V2000
   -3.5350    1.7533    0.0000 N   0  0  0  0  0  0  0  0  0  0  0  0
   -4.0246    0.3354    0.0000 C   0  0  0  0  0  0  0  0  0  0  0  0
   -3.0415   -0.7975    0.0000 C   0  0  0  0  0  0  0  0  0  0  0  0
   -1.5688   -0.5126    0.0000 C   0  0  0  0  0  0  0  0  0  0  0  0
   -0.4726   -1.5365    0.0000 C   0  0  0  0  0  0  0  0  0  0  0  0
    0.8399   -0.8104    0.0000 N   0  0  0  0  0  0  0  0  0  0  0  0
    0.5550    0.6623    0.0000 C   0  0  0  0  0  0  0  0  0  0  0  0
   -0.9337    0.8464    0.0000 N   0  0  0  0  0  0  0  0  0  0  0  0
    2.1989   -1.4455    0.0000 C   0  0  0  0  0  0  0  0  0  0  0  0
    3.4283   -0.5862    0.0000 C   0  0  0  0  0  0  0  0  0  0  0  0
    4.7872   -1.2213    0.0000 C   0  0  0  0  0  0  0  0  0  0  0  0
    6.0167   -0.3620    0.0000 C   0  0  0  0  0  0  0  0  0  0  0  0
    5.8873    1.1324    0.0000 C   0  0  0  0  0  0  0  0  0  0  0  0
    4.5283    1.7675    0.0000 C   0  0  0  0  0  0  0  0  0  0  0  0
    3.2989    0.9082    0.0000 C   0  0  0  0  0  0  0  0  0  0  0  0
   -5.4973    0.0504    0.0000 C   0  0  0  0  0  0  0  0  0  0  0  0
   -5.9868   -1.3674    0.0000 O   0  0  0  0  0  0  0  0  0  0  0  0
   -6.4804    1.1834    0.0000 O   0  0  0  0  0  0  0  0  0  0  0  0
  2  1  1  1
  2  3  1  0
  3  4  1  0
  4  5  2  0
  5  6  1  0
  6  7  1  0
  7  8  2  0
  6  9  1  0
  9 10  1  0
 10 11  2  0
 11 12  1  0
 12 13  2  0
 13 14  1  0
 14 15  2  0
  2 16  1  0
 16 17  2  0
 16 18  1  0
  8  4  1  0
 15 10  1  0
M  END
>  <rName>  (1036) 
His_1Bn

>  <PQ_SYMBOL>  (1036) 
His_1Bn

>  <FULL_NAME>  (1036) 
(2S)-2-amino-3-(1-benzylimidazol-4-yl)propanoic acid

>  <IUPAC_CONDENSED>  (1036) 
His(1-Bn)

>  <IUPAC>  (1036) 
(2S)-2-amino-3-(1-benzyl-1H-imidazol-4-yl)propanoic acid

>  <TYPE>  (1036) 
Backbone

>  <CLASS>  (1036) 
alpha

>  <ANALOG>  (1036) 
His

>  <MOL_WT>  (1036) 
245.282

>  <LOGP>  (1036) 
0.8857999999999997

>  <TPSA>  (1036) 
81.14

>  <POPULARITY>  (1036) 
12.1

>  <PROTECTED>  (1036) 
TRUE

>  <SMILES>  (1036) 
N[C@@H](Cc1(cn(cn1)Cc2(ccccc2)))C(=O)O

>  <INCHIKEY>  (1036) 
NMXSWQMJOZUQKY-LBPRGKRZSA-N

$$$$
Cys_O3H
     RDKit          2D

 10  9  0  0  0  0  0  0  0  0999 V2000
   -0.5029   -1.7542    0.0000 N   0  0  0  0  0  0  0  0  0  0  0  0
   -0.7450   -0.2738    0.0000 C   0  0  0  0  0  0  0  0  0  0  0  0
    0.4160    0.6760    0.0000 C   0  0  0  0  0  0  0  0  0  0  0  0
    1.8190    0.1455    0.0000 S   0  0  0  0  0  0  0  0  0  0  0  0
    2.3495    1.5485    0.0000 O   0  0  0  0  0  0  0  0  0  0  0  0
    1.2885   -1.2576    0.0000 O   0  0  0  0  0  0  0  0  0  0  0  0
    3.2221   -0.3850    0.0000 O   0  0  0  0  0  0  0  0  0  0  0  0
   -2.1480    0.2567    0.0000 C   0  0  0  0  0  0  0  0  0  0  0  0
   -2.3901    1.7370    0.0000 O   0  0  0  0  0  0  0  0  0  0  0  0
   -3.3090   -0.6932    0.0000 O   0  0  0  0  0  0  0  0  0  0  0  0
  2  1  1  6
  2  3  1  0
  3  4  1  0
  4  5  2  0
  4  6  2  0
  4  7  1  0
  2  8  1  0
  8  9  2  0
  8 10  1  0
M  END
>  <rName>  (1037) 
Cys_O3H

>  <PQ_SYMBOL>  (1037) 
Cys_O3H

>  <FULL_NAME>  (1037) 
3-sulfoalanine

>  <IUPAC_CONDENSED>  (1037) 
Cys(O3H)

>  <IUPAC>  (1037) 
(2R)-2-amino-3-sulfopropanoic acid

>  <TYPE>  (1037) 
Backbone

>  <CLASS>  (1037) 
alpha

>  <ANALOG>  (1037) 
X

>  <MOL_WT>  (1037) 
169.158

>  <LOGP>  (1037) 
-1.7138999999999998

>  <TPSA>  (1037) 
117.69000000000001

>  <POPULARITY>  (1037) 
37.8

>  <PROTECTED>  (1037) 
TRUE

>  <SMILES>  (1037) 
N[C@@H](CS(=O)(=O)O)C(=O)O

>  <INCHIKEY>  (1037) 
XVOYSCVBGLVSOL-REOHCLBHSA-N

$$$$
D-Trp_Me
     RDKit          2D

 16 17  0  0  0  0  0  0  0  0999 V2000
   -2.6387   -1.6746    0.0000 N   0  0  0  0  0  0  0  0  0  0  0  0
   -2.6908   -0.1755    0.0000 C   0  0  0  0  0  0  0  0  0  0  0  0
   -1.4185    0.6191    0.0000 C   0  0  0  0  0  0  0  0  0  0  0  0
   -0.0943   -0.0853    0.0000 C   0  0  0  0  0  0  0  0  0  0  0  0
    0.1142   -1.5708    0.0000 C   0  0  0  0  0  0  0  0  0  0  0  0
    1.5913   -1.8316    0.0000 N   0  0  0  0  0  0  0  0  0  0  0  0
    2.2486   -3.1799    0.0000 C   0  0  0  0  0  0  0  0  0  0  0  0
    2.2958   -0.5073    0.0000 C   0  0  0  0  0  0  0  0  0  0  0  0
    3.7514   -0.1448    0.0000 C   0  0  0  0  0  0  0  0  0  0  0  0
    4.1651    1.2970    0.0000 C   0  0  0  0  0  0  0  0  0  0  0  0
    3.1234    2.3763    0.0000 C   0  0  0  0  0  0  0  0  0  0  0  0
    1.6678    2.0137    0.0000 C   0  0  0  0  0  0  0  0  0  0  0  0
    1.2541    0.5719    0.0000 C   0  0  0  0  0  0  0  0  0  0  0  0
   -4.0150    0.5290    0.0000 C   0  0  0  0  0  0  0  0  0  0  0  0
   -4.0671    2.0281    0.0000 O   0  0  0  0  0  0  0  0  0  0  0  0
   -5.2873   -0.2656    0.0000 O   0  0  0  0  0  0  0  0  0  0  0  0
  2  1  1  1
  2  3  1  0
  3  4  1  0
  4  5  2  0
  5  6  1  0
  6  7  1  0
  6  8  1  0
  8  9  2  0
  9 10  1  0
 10 11  2  0
 11 12  1  0
 12 13  2  0
  2 14  1  0
 14 15  2  0
 14 16  1  0
 13  4  1  0
 13  8  1  0
M  END
>  <rName>  (1038) 
D-Trp_Me

>  <PQ_SYMBOL>  (1038) 
D-Trp_Me

>  <FULL_NAME>  (1038) 
N1-methyl-D-tryptophan

>  <IUPAC_CONDENSED>  (1038) 
D-Trp(Me)

>  <IUPAC>  (1038) 
(2R)-2-amino-3-(1-methyl-1H-indol-3-yl)propanoic acid

>  <TYPE>  (1038) 
Backbone

>  <CLASS>  (1038) 
alpha

>  <ANALOG>  (1038) 
Trp

>  <MOL_WT>  (1038) 
218.256

>  <LOGP>  (1038) 
1.1327000000000003

>  <TPSA>  (1038) 
68.25

>  <POPULARITY>  (1038) 
16.6

>  <PROTECTED>  (1038) 
TRUE

>  <SMILES>  (1038) 
N[C@H](Cc1(cn(C)c2(ccccc12)))C(=O)O

>  <INCHIKEY>  (1038) 
ZADWXFSZEAPBJS-SNVBAGLBSA-N

$$$$
Phe_4NHMes
     RDKit          2D

 17 17  0  0  0  0  0  0  0  0999 V2000
   -3.1457    1.6694    0.0000 N   0  0  0  0  0  0  0  0  0  0  0  0
   -3.4800    0.2071    0.0000 C   0  0  0  0  0  0  0  0  0  0  0  0
   -2.3807   -0.8135    0.0000 C   0  0  0  0  0  0  0  0  0  0  0  0
   -0.9472   -0.3718    0.0000 C   0  0  0  0  0  0  0  0  0  0  0  0
   -0.6130    1.0905    0.0000 C   0  0  0  0  0  0  0  0  0  0  0  0
    0.8205    1.5322    0.0000 C   0  0  0  0  0  0  0  0  0  0  0  0
    1.9198    0.5116    0.0000 C   0  0  0  0  0  0  0  0  0  0  0  0
    1.5855   -0.9507    0.0000 C   0  0  0  0  0  0  0  0  0  0  0  0
    0.1520   -1.3924    0.0000 C   0  0  0  0  0  0  0  0  0  0  0  0
    3.3533    0.9532    0.0000 N   0  0  0  0  0  0  0  0  0  0  0  0
    4.4525   -0.0674    0.0000 S   0  0  0  0  0  0  0  0  0  0  0  0
    3.4319   -1.1666    0.0000 O   0  0  0  0  0  0  0  0  0  0  0  0
    5.4731    1.0319    0.0000 O   0  0  0  0  0  0  0  0  0  0  0  0
    5.5518   -1.0880    0.0000 C   0  0  0  0  0  0  0  0  0  0  0  0
   -4.9135   -0.2346    0.0000 C   0  0  0  0  0  0  0  0  0  0  0  0
   -5.2477   -1.6969    0.0000 O   0  0  0  0  0  0  0  0  0  0  0  0
   -6.0127    0.7860    0.0000 O   0  0  0  0  0  0  0  0  0  0  0  0
  2  1  1  1
  2  3  1  0
  3  4  1  0
  4  5  1  0
  5  6  2  0
  6  7  1  0
  7  8  2  0
  8  9  1  0
  7 10  1  0
 10 11  1  0
 11 12  2  0
 11 13  2  0
 11 14  1  0
  2 15  1  0
 15 16  2  0
 15 17  1  0
  9  4  2  0
M  END
>  <rName>  (1039) 
Phe_4NHMes

>  <PQ_SYMBOL>  (1039) 
Phe_4NHMes

>  <FULL_NAME>  (1039) 
(2S)-2-amino-3-[4-(methanesulfonamido)phenyl]propanoic acid

>  <IUPAC_CONDENSED>  (1039) 
Phe(4-NHMes)

>  <IUPAC>  (1039) 
(2S)-2-amino-3-(4-methylsulfonylaminophenyl)propanoic acid

>  <TYPE>  (1039) 
Backbone

>  <CLASS>  (1039) 
alpha

>  <ANALOG>  (1039) 
Phe

>  <MOL_WT>  (1039) 
258.2989999999999

>  <LOGP>  (1039) 
0.012499999999999678

>  <TPSA>  (1039) 
109.49

>  <POPULARITY>  (1039) 
6.6

>  <PROTECTED>  (1039) 
TRUE

>  <SMILES>  (1039) 
N[C@@H](Cc1(ccc(cc1)NS(=O)(=O)C))C(=O)O

>  <INCHIKEY>  (1039) 
JCDAIQZEQLVVRT-VIFPVBQESA-N

$$$$
Phe_4CH2CO2H
     RDKit          2D

 17 17  0  0  0  0  0  0  0  0999 V2000
   -3.3399    1.6723    0.0000 N   0  0  0  0  0  0  0  0  0  0  0  0
   -3.7459    0.2283    0.0000 C   0  0  0  0  0  0  0  0  0  0  0  0
   -2.6984   -0.8453    0.0000 C   0  0  0  0  0  0  0  0  0  0  0  0
   -1.2448   -0.4749    0.0000 C   0  0  0  0  0  0  0  0  0  0  0  0
   -0.8388    0.9691    0.0000 C   0  0  0  0  0  0  0  0  0  0  0  0
    0.6147    1.3395    0.0000 C   0  0  0  0  0  0  0  0  0  0  0  0
    1.6623    0.2659    0.0000 C   0  0  0  0  0  0  0  0  0  0  0  0
    3.1158    0.6363    0.0000 O   0  0  0  0  0  0  0  0  0  0  0  0
    4.1634   -0.4373    0.0000 C   0  0  0  0  0  0  0  0  0  0  0  0
    5.6169   -0.0669    0.0000 C   0  0  0  0  0  0  0  0  0  0  0  0
    6.0229    1.3771    0.0000 O   0  0  0  0  0  0  0  0  0  0  0  0
    6.6645   -1.1405    0.0000 O   0  0  0  0  0  0  0  0  0  0  0  0
    1.2563   -1.1781    0.0000 C   0  0  0  0  0  0  0  0  0  0  0  0
   -0.1972   -1.5485    0.0000 C   0  0  0  0  0  0  0  0  0  0  0  0
   -5.1995   -0.1421    0.0000 C   0  0  0  0  0  0  0  0  0  0  0  0
   -5.6054   -1.5861    0.0000 O   0  0  0  0  0  0  0  0  0  0  0  0
   -6.2470    0.9315    0.0000 O   0  0  0  0  0  0  0  0  0  0  0  0
  2  1  1  1
  2  3  1  0
  3  4  1  0
  4  5  1  0
  5  6  2  0
  6  7  1  0
  7  8  1  0
  8  9  1  0
  9 10  1  0
 10 11  2  0
 10 12  1  0
  7 13  2  0
 13 14  1  0
  2 15  1  0
 15 16  2  0
 15 17  1  0
 14  4  2  0
M  END
>  <rName>  (1040) 
Phe_4CH2CO2H

>  <PQ_SYMBOL>  (1040) 
Phe_4CH2CO2H

>  <FULL_NAME>  (1040) 
(2S)-2-amino-3-[4-(carboxymethoxy)phenyl]propanoic acid

>  <IUPAC_CONDENSED>  (1040) 
Tyr(EtO2H)

>  <IUPAC>  (1040) 
(2S)-2-amino-3-(4-(2-hydroxy-2-oxoethoxy)phenyl)propanoic acid

>  <TYPE>  (1040) 
Backbone

>  <CLASS>  (1040) 
alpha

>  <ANALOG>  (1040) 
Tyr

>  <MOL_WT>  (1040) 
239.22699999999998

>  <LOGP>  (1040) 
0.10439999999999972

>  <TPSA>  (1040) 
109.85000000000001

>  <POPULARITY>  (1040) 
9.3

>  <PROTECTED>  (1040) 
TRUE

>  <SMILES>  (1040) 
N[C@@H](Cc1(ccc(OCC(=O)O)cc1))C(=O)O

>  <INCHIKEY>  (1040) 
ARXFMTURSPNMGH-VIFPVBQESA-N

$$$$
Arg_Me_Me
     RDKit          2D

 14 13  0  0  0  0  0  0  0  0999 V2000
   -2.9844    2.0134    0.0000 N   0  0  0  0  0  0  0  0  0  0  0  0
   -2.9732    0.5134    0.0000 C   0  0  0  0  0  0  0  0  0  0  0  0
   -1.6685   -0.2268    0.0000 C   0  0  0  0  0  0  0  0  0  0  0  0
   -0.3752    0.5329    0.0000 C   0  0  0  0  0  0  0  0  0  0  0  0
    0.9295   -0.2073    0.0000 C   0  0  0  0  0  0  0  0  0  0  0  0
    2.2228    0.5524    0.0000 N   0  0  0  0  0  0  0  0  0  0  0  0
    3.5275   -0.1878    0.0000 C   0  0  0  0  0  0  0  0  0  0  0  0
    4.8208    0.5719    0.0000 N   0  0  0  0  0  0  0  0  0  0  0  0
    4.8096    2.0719    0.0000 C   0  0  0  0  0  0  0  0  0  0  0  0
    3.5387   -1.6878    0.0000 N   0  0  0  0  0  0  0  0  0  0  0  0
    2.2454   -2.4475    0.0000 C   0  0  0  0  0  0  0  0  0  0  0  0
   -4.2665   -0.2463    0.0000 C   0  0  0  0  0  0  0  0  0  0  0  0
   -4.2553   -1.7463    0.0000 O   0  0  0  0  0  0  0  0  0  0  0  0
   -5.5712    0.4939    0.0000 O   0  0  0  0  0  0  0  0  0  0  0  0
  2  1  1  1
  2  3  1  0
  3  4  1  0
  4  5  1  0
  5  6  1  0
  6  7  1  0
  7  8  2  3
  8  9  1  0
  7 10  1  0
 10 11  1  0
  2 12  1  0
 12 13  2  0
 12 14  1  0
M  END
>  <rName>  (1041) 
Arg_Me_Me

>  <PQ_SYMBOL>  (1041) 
Arg_Me_Me

>  <FULL_NAME>  (1041) 
N3,N4-dimethylarginine

>  <IUPAC_CONDENSED>  (1041) 
Arg(Me,Me)

>  <IUPAC>  (1041) 
(2S)-2-amino-5-(((methylamino)(methylimino)methyl)amino)pentanoic acid

>  <TYPE>  (1041) 
Backbone

>  <CLASS>  (1041) 
alpha

>  <ANALOG>  (1041) 
Arg

>  <MOL_WT>  (1041) 
202.258

>  <LOGP>  (1041) 
-1.0266999999999982

>  <TPSA>  (1041) 
99.74

>  <POPULARITY>  (1041) 
12.4

>  <PROTECTED>  (1041) 
TRUE

>  <SMILES>  (1041) 
N[C@@H](CCCNC(=NC)NC)C(=O)O

>  <INCHIKEY>  (1041) 
HVPFXCBJHIIJGS-LURJTMIESA-N

$$$$
Nle_Pr
     RDKit          2D

 12 11  0  0  0  0  0  0  0  0999 V2000
    2.5981    1.8750    0.0000 N   0  0  0  0  0  0  0  0  0  0  0  0
    2.5981    0.3750    0.0000 C   0  0  0  0  0  0  0  0  0  0  0  0
    1.2990   -0.3750    0.0000 C   0  0  0  0  0  0  0  0  0  0  0  0
    0.0000    0.3750    0.0000 C   0  0  0  0  0  0  0  0  0  0  0  0
   -1.2990   -0.3750    0.0000 C   0  0  0  0  0  0  0  0  0  0  0  0
   -2.5981    0.3750    0.0000 C   0  0  0  0  0  0  0  0  0  0  0  0
   -3.8971   -0.3750    0.0000 C   0  0  0  0  0  0  0  0  0  0  0  0
   -5.1962    0.3750    0.0000 C   0  0  0  0  0  0  0  0  0  0  0  0
   -6.4952   -0.3750    0.0000 C   0  0  0  0  0  0  0  0  0  0  0  0
    3.8971   -0.3750    0.0000 C   0  0  0  0  0  0  0  0  0  0  0  0
    3.8971   -1.8750    0.0000 O   0  0  0  0  0  0  0  0  0  0  0  0
    5.1962    0.3750    0.0000 O   0  0  0  0  0  0  0  0  0  0  0  0
  2  1  1  6
  2  3  1  0
  3  4  1  0
  4  5  1  0
  5  6  1  0
  6  7  1  0
  7  8  1  0
  8  9  1  0
  2 10  1  0
 10 11  2  0
 10 12  1  0
M  END
>  <rName>  (1042) 
Nle_Pr

>  <PQ_SYMBOL>  (1042) 
Nle_Pr

>  <FULL_NAME>  (1042) 
(2S)-2-aminononanoic acid

>  <IUPAC_CONDENSED>  (1042) 
Nle(Pr)

>  <IUPAC>  (1042) 
(2S)-2-aminononanoic acid

>  <TYPE>  (1042) 
Backbone

>  <CLASS>  (1042) 
alpha

>  <ANALOG>  (1042) 
X

>  <MOL_WT>  (1042) 
173.256

>  <LOGP>  (1042) 
1.7588

>  <TPSA>  (1042) 
63.32000000000001

>  <POPULARITY>  (1042) 
18.9

>  <PROTECTED>  (1042) 
TRUE

>  <SMILES>  (1042) 
N[C@@H](CCCCCCC)C(=O)O

>  <INCHIKEY>  (1042) 
JVPFOKXICYJJSC-QMMMGPOBSA-N

$$$$
His_2Me
     RDKit          2D

 12 12  0  0  0  0  0  0  0  0999 V2000
   -1.1070    1.6556    0.0000 N   0  0  0  0  0  0  0  0  0  0  0  0
   -1.6374    0.2525    0.0000 C   0  0  0  0  0  0  0  0  0  0  0  0
   -0.6875   -0.9084    0.0000 C   0  0  0  0  0  0  0  0  0  0  0  0
    0.7928   -0.6662    0.0000 C   0  0  0  0  0  0  0  0  0  0  0  0
    1.8589   -1.7215    0.0000 C   0  0  0  0  0  0  0  0  0  0  0  0
    3.1919   -1.0337    0.0000 N   0  0  0  0  0  0  0  0  0  0  0  0
    2.9497    0.4466    0.0000 C   0  0  0  0  0  0  0  0  0  0  0  0
    4.0050    1.5127    0.0000 C   0  0  0  0  0  0  0  0  0  0  0  0
    1.4670    0.6737    0.0000 N   0  0  0  0  0  0  0  0  0  0  0  0
   -3.1177    0.0103    0.0000 C   0  0  0  0  0  0  0  0  0  0  0  0
   -3.6481   -1.3928    0.0000 O   0  0  0  0  0  0  0  0  0  0  0  0
   -4.0676    1.1712    0.0000 O   0  0  0  0  0  0  0  0  0  0  0  0
  2  1  1  1
  2  3  1  0
  3  4  1  0
  4  5  2  0
  5  6  1  0
  6  7  2  0
  7  8  1  0
  7  9  1  0
  2 10  1  0
 10 11  2  0
 10 12  1  0
  9  4  1  0
M  END
>  <rName>  (1043) 
His_2Me

>  <PQ_SYMBOL>  (1043) 
His_2Me

>  <FULL_NAME>  (1043) 
(2S)-2-amino-3-(2-methyl-1H-imidazol-5-yl)propanoic acid

>  <IUPAC_CONDENSED>  (1043) 
His(2-Me)

>  <IUPAC>  (1043) 
(2S)-2-amino-3-(2-methyl-1H-imidazol-5-yl)propanoic acid

>  <TYPE>  (1043) 
Backbone

>  <CLASS>  (1043) 
alpha

>  <ANALOG>  (1043) 
His

>  <MOL_WT>  (1043) 
169.184

>  <LOGP>  (1043) 
-0.32748000000000027

>  <TPSA>  (1043) 
92

>  <POPULARITY>  (1043) 
11.5

>  <PROTECTED>  (1043) 
TRUE

>  <SMILES>  (1043) 
N[C@@H](Cc1(cnc(C)[nH]1))C(=O)O

>  <INCHIKEY>  (1043) 
QNNKCRYTUGINFA-LURJTMIESA-N

$$$$
hArg_Et_Et
     RDKit          2D

 17 16  0  0  0  0  0  0  0  0999 V2000
    4.2245   -1.5752    0.0000 N   0  0  0  0  0  0  0  0  0  0  0  0
    4.2042   -0.0754    0.0000 C   0  0  0  0  0  0  0  0  0  0  0  0
    2.8951    0.6570    0.0000 C   0  0  0  0  0  0  0  0  0  0  0  0
    1.6063   -0.1106    0.0000 C   0  0  0  0  0  0  0  0  0  0  0  0
    0.2973    0.6217    0.0000 C   0  0  0  0  0  0  0  0  0  0  0  0
   -0.9915   -0.1458    0.0000 C   0  0  0  0  0  0  0  0  0  0  0  0
   -2.3006    0.5865    0.0000 N   0  0  0  0  0  0  0  0  0  0  0  0
   -3.5893   -0.1810    0.0000 C   0  0  0  0  0  0  0  0  0  0  0  0
   -4.8984    0.5513    0.0000 N   0  0  0  0  0  0  0  0  0  0  0  0
   -4.9188    2.0511    0.0000 C   0  0  0  0  0  0  0  0  0  0  0  0
   -6.2278    2.7835    0.0000 C   0  0  0  0  0  0  0  0  0  0  0  0
   -3.5690   -1.6809    0.0000 N   0  0  0  0  0  0  0  0  0  0  0  0
   -2.2599   -2.4132    0.0000 C   0  0  0  0  0  0  0  0  0  0  0  0
   -2.2396   -3.9131    0.0000 C   0  0  0  0  0  0  0  0  0  0  0  0
    5.4929    0.6922    0.0000 C   0  0  0  0  0  0  0  0  0  0  0  0
    5.4726    2.1920    0.0000 O   0  0  0  0  0  0  0  0  0  0  0  0
    6.8020   -0.0401    0.0000 O   0  0  0  0  0  0  0  0  0  0  0  0
  2  1  1  1
  2  3  1  0
  3  4  1  0
  4  5  1  0
  5  6  1  0
  6  7  1  0
  7  8  1  0
  8  9  2  3
  9 10  1  0
 10 11  1  0
  8 12  1  0
 12 13  1  0
 13 14  1  0
  2 15  1  0
 15 16  2  0
 15 17  1  0
M  END
>  <rName>  (1044) 
hArg_Et_Et

>  <PQ_SYMBOL>  (1044) 
hArg_Et_Et

>  <FULL_NAME>  (1044) 
N6-(Bis(ethylamino)methylene)-L-lysine

>  <IUPAC_CONDENSED>  (1044) 
hArg(Et,Et)

>  <IUPAC>  (1044) 
(2S)-2-amino-6-(((ethylamino)(ethylimino)methyl)amino)hexanoic acid

>  <TYPE>  (1044) 
Backbone

>  <CLASS>  (1044) 
alpha

>  <ANALOG>  (1044) 
Arg

>  <MOL_WT>  (1044) 
244.339

>  <LOGP>  (1044) 
0.143600000000001

>  <TPSA>  (1044) 
99.74

>  <POPULARITY>  (1044) 
11.3

>  <PROTECTED>  (1044) 
TRUE

>  <SMILES>  (1044) 
N[C@@H](CCCCNC(=NCC)NCC)C(=O)O

>  <INCHIKEY>  (1044) 
PWLYCRQCVMQUBU-VIFPVBQESA-N

$$$$
Ser_octanoyl
     RDKit          2D

 16 15  0  0  0  0  0  0  0  0999 V2000
    4.3638   -2.0137    0.0000 N   0  0  0  0  0  0  0  0  0  0  0  0
    4.3792   -0.5138    0.0000 C   0  0  0  0  0  0  0  0  0  0  0  0
    3.0879    0.2495    0.0000 C   0  0  0  0  0  0  0  0  0  0  0  0
    1.7813   -0.4871    0.0000 O   0  0  0  0  0  0  0  0  0  0  0  0
    0.4900    0.2762    0.0000 C   0  0  0  0  0  0  0  0  0  0  0  0
    0.5054    1.7761    0.0000 O   0  0  0  0  0  0  0  0  0  0  0  0
   -0.8167   -0.4604    0.0000 C   0  0  0  0  0  0  0  0  0  0  0  0
   -2.1079    0.3029    0.0000 C   0  0  0  0  0  0  0  0  0  0  0  0
   -3.4146   -0.4337    0.0000 C   0  0  0  0  0  0  0  0  0  0  0  0
   -4.7059    0.3297    0.0000 C   0  0  0  0  0  0  0  0  0  0  0  0
   -6.0126   -0.4069    0.0000 C   0  0  0  0  0  0  0  0  0  0  0  0
   -7.3038    0.3564    0.0000 C   0  0  0  0  0  0  0  0  0  0  0  0
   -8.6105   -0.3802    0.0000 C   0  0  0  0  0  0  0  0  0  0  0  0
    5.6859    0.2228    0.0000 C   0  0  0  0  0  0  0  0  0  0  0  0
    5.7013    1.7227    0.0000 O   0  0  0  0  0  0  0  0  0  0  0  0
    6.9771   -0.5405    0.0000 O   0  0  0  0  0  0  0  0  0  0  0  0
  2  1  1  1
  2  3  1  0
  3  4  1  0
  4  5  1  0
  5  6  2  0
  5  7  1  0
  7  8  1  0
  8  9  1  0
  9 10  1  0
 10 11  1  0
 11 12  1  0
 12 13  1  0
  2 14  1  0
 14 15  2  0
 14 16  1  0
M  END
>  <rName>  (1045) 
Ser_octanoyl

>  <PQ_SYMBOL>  (1045) 
Ser_octanoyl

>  <FULL_NAME>  (1045) 
(2S)-2-amino-3-octanoyloxypropanoic acid

>  <IUPAC_CONDENSED>  (1045) 
Ser(octanoyl)

>  <IUPAC>  (1045) 
(2S)-2-amino-3-(heptylcarbonyloxy)propanoic acid

>  <TYPE>  (1045) 
Backbone

>  <CLASS>  (1045) 
alpha

>  <ANALOG>  (1045) 
Ser

>  <MOL_WT>  (1045) 
231.29199999999994

>  <LOGP>  (1045) 
1.3019999999999996

>  <TPSA>  (1045) 
89.62

>  <POPULARITY>  (1045) 
16.7

>  <PROTECTED>  (1045) 
TRUE

>  <SMILES>  (1045) 
N[C@@H](COC(=O)CCCCCCC)C(=O)O

>  <INCHIKEY>  (1045) 
QQWGFKGHHSBYPK-VIFPVBQESA-N

$$$$
Ac8c
     RDKit          2D

 12 12  0  0  0  0  0  0  0  0999 V2000
    1.7387   -1.5108    0.0000 N   0  0  0  0  0  0  0  0  0  0  0  0
    0.7504   -0.3825    0.0000 C   0  0  0  0  0  0  0  0  0  0  0  0
   -0.0837   -1.6292    0.0000 C   0  0  0  0  0  0  0  0  0  0  0  0
   -1.5550   -1.9210    0.0000 C   0  0  0  0  0  0  0  0  0  0  0  0
   -2.8018   -1.0869    0.0000 C   0  0  0  0  0  0  0  0  0  0  0  0
   -3.0935    0.3844    0.0000 C   0  0  0  0  0  0  0  0  0  0  0  0
   -2.2595    1.6311    0.0000 C   0  0  0  0  0  0  0  0  0  0  0  0
   -0.7881    1.9229    0.0000 C   0  0  0  0  0  0  0  0  0  0  0  0
    0.4586    1.0889    0.0000 C   0  0  0  0  0  0  0  0  0  0  0  0
    2.0961    0.2802    0.0000 C   0  0  0  0  0  0  0  0  0  0  0  0
    2.1950    1.7769    0.0000 O   0  0  0  0  0  0  0  0  0  0  0  0
    3.3428   -0.5539    0.0000 O   0  0  0  0  0  0  0  0  0  0  0  0
  1  2  1  0
  2  3  1  0
  3  4  1  0
  4  5  1  0
  5  6  1  0
  6  7  1  0
  7  8  1  0
  8  9  1  0
  2 10  1  0
 10 11  2  0
 10 12  1  0
  9  2  1  0
M  END
>  <rName>  (1046) 
Ac8c

>  <PQ_SYMBOL>  (1046) 
Ac8c

>  <FULL_NAME>  (1046) 
1-aminocyclooctane-1-carboxylic acid

>  <IUPAC_CONDENSED>  (1046) 
Ac8c

>  <IUPAC>  (1046) 
1-aminocyclooctanecarboxylic acid

>  <TYPE>  (1046) 
Backbone

>  <CLASS>  (1046) 
alpha

>  <ANALOG>  (1046) 
X

>  <MOL_WT>  (1046) 
171.24

>  <LOGP>  (1046) 
1.5128

>  <TPSA>  (1046) 
63.32000000000001

>  <POPULARITY>  (1046) 
10.2

>  <PROTECTED>  (1046) 
TRUE

>  <SMILES>  (1046) 
NC1(CCCCCCC1)C(=O)O

>  <INCHIKEY>  (1046) 
PJSQECUPWDUIBT-UHFFFAOYSA-N

$$$$
NcPr-G
     RDKit          2D

  8  8  0  0  0  0  0  0  0  0999 V2000
    0.4085   -0.5581    0.0000 N   0  0  0  0  0  0  0  0  0  0  0  0
    1.8497   -0.1423    0.0000 C   0  0  0  0  0  0  0  0  0  0  0  0
    3.3057   -0.5027    0.0000 C   0  0  0  0  0  0  0  0  0  0  0  0
    2.8899    0.9385    0.0000 C   0  0  0  0  0  0  0  0  0  0  0  0
   -0.6723    0.4820    0.0000 C   0  0  0  0  0  0  0  0  0  0  0  0
   -2.1135    0.0661    0.0000 C   0  0  0  0  0  0  0  0  0  0  0  0
   -2.4739   -1.3899    0.0000 O   0  0  0  0  0  0  0  0  0  0  0  0
   -3.1942    1.1063    0.0000 O   0  0  0  0  0  0  0  0  0  0  0  0
  1  2  1  0
  2  3  1  0
  3  4  1  0
  1  5  1  0
  5  6  1  0
  6  7  2  0
  6  8  1  0
  4  2  1  0
M  END
>  <rName>  (1047) 
NcPr-G

>  <PQ_SYMBOL>  (1047) 
NcPr-G

>  <FULL_NAME>  (1047) 
2-(cyclopropylamino)acetic acid

>  <IUPAC_CONDENSED>  (1047) 
N-cPr-Gly

>  <IUPAC>  (1047) 
2-(cyclopropylamino)acetic acid

>  <TYPE>  (1047) 
Backbone

>  <CLASS>  (1047) 
alpha

>  <ANALOG>  (1047) 
Gly

>  <MOL_WT>  (1047) 
115.13199999999999

>  <LOGP>  (1047) 
-0.17700000000000032

>  <TPSA>  (1047) 
49.33

>  <POPULARITY>  (1047) 
14.5

>  <PROTECTED>  (1047) 
TRUE

>  <SMILES>  (1047) 
N(C1(CC1))CC(=O)O

>  <INCHIKEY>  (1047) 
DXQCCQKRNWMECV-UHFFFAOYSA-N

$$$$
NPr-G
     RDKit          2D

  8  7  0  0  0  0  0  0  0  0999 V2000
   -0.3069    0.2155    0.0000 N   0  0  0  0  0  0  0  0  0  0  0  0
   -1.6672   -0.4165    0.0000 C   0  0  0  0  0  0  0  0  0  0  0  0
   -2.8948    0.4455    0.0000 C   0  0  0  0  0  0  0  0  0  0  0  0
   -4.2551   -0.1865    0.0000 C   0  0  0  0  0  0  0  0  0  0  0  0
    0.9207   -0.6465    0.0000 C   0  0  0  0  0  0  0  0  0  0  0  0
    2.2810   -0.0145    0.0000 C   0  0  0  0  0  0  0  0  0  0  0  0
    2.4138    1.4796    0.0000 O   0  0  0  0  0  0  0  0  0  0  0  0
    3.5085   -0.8766    0.0000 O   0  0  0  0  0  0  0  0  0  0  0  0
  1  2  1  0
  2  3  1  0
  3  4  1  0
  1  5  1  0
  5  6  1  0
  6  7  2  0
  6  8  1  0
M  END
>  <rName>  (1048) 
NPr-G

>  <PQ_SYMBOL>  (1048) 
NPr-G

>  <FULL_NAME>  (1048) 
2-(propylamino)acetic acid

>  <IUPAC_CONDENSED>  (1048) 
Pr-Gly

>  <IUPAC>  (1048) 
2-(propylamino)acetic acid

>  <TYPE>  (1048) 
Backbone

>  <CLASS>  (1048) 
alpha

>  <ANALOG>  (1048) 
Gly

>  <MOL_WT>  (1048) 
117.14799999999998

>  <LOGP>  (1048) 
0.07059999999999994

>  <TPSA>  (1048) 
49.33

>  <POPULARITY>  (1048) 
24.5

>  <PROTECTED>  (1048) 
TRUE

>  <SMILES>  (1048) 
N(CCC)CC(=O)O

>  <INCHIKEY>  (1048) 
BHUGZIJOVAVBOQ-UHFFFAOYSA-N

$$$$
Phe_4ureido
     RDKit          2D

 16 16  0  0  0  0  0  0  0  0999 V2000
   -2.8646    1.6700    0.0000 N   0  0  0  0  0  0  0  0  0  0  0  0
   -3.2013    0.2083    0.0000 C   0  0  0  0  0  0  0  0  0  0  0  0
   -2.1038   -0.8141    0.0000 C   0  0  0  0  0  0  0  0  0  0  0  0
   -0.6696   -0.3749    0.0000 C   0  0  0  0  0  0  0  0  0  0  0  0
   -0.3329    1.0868    0.0000 C   0  0  0  0  0  0  0  0  0  0  0  0
    1.1014    1.5261    0.0000 C   0  0  0  0  0  0  0  0  0  0  0  0
    2.1989    0.5036    0.0000 C   0  0  0  0  0  0  0  0  0  0  0  0
    1.8622   -0.9581    0.0000 C   0  0  0  0  0  0  0  0  0  0  0  0
    0.4280   -1.3974    0.0000 C   0  0  0  0  0  0  0  0  0  0  0  0
    3.6332    0.9429    0.0000 N   0  0  0  0  0  0  0  0  0  0  0  0
    4.7307   -0.0796    0.0000 C   0  0  0  0  0  0  0  0  0  0  0  0
    4.3940   -1.5413    0.0000 O   0  0  0  0  0  0  0  0  0  0  0  0
    6.1649    0.3597    0.0000 N   0  0  0  0  0  0  0  0  0  0  0  0
   -4.6356   -0.2309    0.0000 C   0  0  0  0  0  0  0  0  0  0  0  0
   -4.9723   -1.6927    0.0000 O   0  0  0  0  0  0  0  0  0  0  0  0
   -5.7331    0.7915    0.0000 O   0  0  0  0  0  0  0  0  0  0  0  0
  2  1  1  1
  2  3  1  0
  3  4  1  0
  4  5  1  0
  5  6  2  0
  6  7  1  0
  7  8  2  0
  8  9  1  0
  7 10  1  0
 10 11  1  0
 11 12  2  0
 11 13  1  0
  2 14  1  0
 14 15  2  0
 14 16  1  0
  9  4  2  0
M  END
>  <rName>  (1049) 
Phe_4ureido

>  <PQ_SYMBOL>  (1049) 
Phe_4ureido

>  <FULL_NAME>  (1049) 
(2S)-2-amino-3-[4-(carbamoylamino)phenyl]propanoic acid

>  <IUPAC_CONDENSED>  (1049) 
Phe(4-ureido)

>  <IUPAC>  (1049) 
(2S)-2-amino-3-(4-(carbamoylamino)phenyl)propanoic acid

>  <TYPE>  (1049) 
Backbone

>  <CLASS>  (1049) 
alpha

>  <ANALOG>  (1049) 
Phe

>  <MOL_WT>  (1049) 
223.23199999999994

>  <LOGP>  (1049) 
0.1316

>  <TPSA>  (1049) 
118.44000000000001

>  <POPULARITY>  (1049) 
12.5

>  <PROTECTED>  (1049) 
TRUE

>  <SMILES>  (1049) 
N[C@@H](Cc1(ccc(cc1)NC(=O)N))C(=O)O

>  <INCHIKEY>  (1049) 
ZTAKYRNNPKFXGS-QMMMGPOBSA-N

$$$$
Hyp_Ph
     RDKit          2D

 15 16  0  0  0  0  0  0  0  0999 V2000
   -1.9780    1.3585    0.0000 N   0  0  0  0  0  0  0  0  0  0  0  0
   -2.7771    0.0891    0.0000 C   0  0  0  0  0  0  0  0  0  0  0  0
   -1.8168   -1.0632    0.0000 C   0  0  0  0  0  0  0  0  0  0  0  0
   -0.4242   -0.5059    0.0000 C   0  0  0  0  0  0  0  0  0  0  0  0
    0.8452   -1.3051    0.0000 O   0  0  0  0  0  0  0  0  0  0  0  0
    2.1720   -0.6053    0.0000 C   0  0  0  0  0  0  0  0  0  0  0  0
    3.4414   -1.4044    0.0000 C   0  0  0  0  0  0  0  0  0  0  0  0
    4.7682   -0.7047    0.0000 C   0  0  0  0  0  0  0  0  0  0  0  0
    4.8256    0.7942    0.0000 C   0  0  0  0  0  0  0  0  0  0  0  0
    3.5562    1.5934    0.0000 C   0  0  0  0  0  0  0  0  0  0  0  0
    2.2294    0.8936    0.0000 C   0  0  0  0  0  0  0  0  0  0  0  0
   -0.5238    0.9908    0.0000 C   0  0  0  0  0  0  0  0  0  0  0  0
   -4.2738   -0.0105    0.0000 C   0  0  0  0  0  0  0  0  0  0  0  0
   -4.9359   -1.3565    0.0000 O   0  0  0  0  0  0  0  0  0  0  0  0
   -5.1084    1.2359    0.0000 O   0  0  0  0  0  0  0  0  0  0  0  0
  1  2  1  0
  2  3  1  0
  3  4  1  0
  4  5  1  6
  5  6  1  0
  6  7  2  0
  7  8  1  0
  8  9  2  0
  9 10  1  0
 10 11  2  0
  4 12  1  0
  2 13  1  1
 13 14  2  0
 13 15  1  0
 11  6  1  0
 12  1  1  0
M  END
>  <rName>  (1050) 
Hyp_Ph

>  <PQ_SYMBOL>  (1050) 
Hyp_Ph

>  <FULL_NAME>  (1050) 
(2S,4R)-4-phenoxypyrrolidine-2-carboxylic acid

>  <IUPAC_CONDENSED>  (1050) 
Hyp(Ph)

>  <IUPAC>  (1050) 
(2S,4R)-4-phenoxypyrrolidine-2-carboxylic acid

>  <TYPE>  (1050) 
Backbone

>  <CLASS>  (1050) 
alpha

>  <ANALOG>  (1050) 
Pro

>  <MOL_WT>  (1050) 
207.22899999999998

>  <LOGP>  (1050) 
0.8805000000000001

>  <TPSA>  (1050) 
58.56

>  <POPULARITY>  (1050) 
8.9

>  <PROTECTED>  (1050) 
TRUE

>  <SMILES>  (1050) 
N2[C@@H](C[C@@H](Oc1(ccccc1))C2)C(=O)O

>  <INCHIKEY>  (1050) 
RWSHAZYNUOFZMI-ZJUUUORDSA-N

$$$$
Pro_4RN3
     RDKit          2D

 11 11  0  0  0  0  0  0  0  0999 V2000
    1.2535   -1.6430    0.0000 N   0  0  0  0  0  0  0  0  0  0  0  0
    1.2696   -0.1431    0.0000 C   0  0  0  0  0  0  0  0  0  0  0  0
   -0.1519    0.3357    0.0000 C   0  0  0  0  0  0  0  0  0  0  0  0
   -1.0466   -0.8682    0.0000 C   0  0  0  0  0  0  0  0  0  0  0  0
   -0.1780   -2.0912    0.0000 C   0  0  0  0  0  0  0  0  0  0  0  0
   -2.5465   -0.8521    0.0000 N   0  0  0  0  0  0  0  0  0  0  0  0
   -3.2825    0.4549    0.0000 N   0  0  0  0  0  0  0  0  0  0  0  0
   -4.0185    1.7619    0.0000 N   0  0  0  0  0  0  0  0  0  0  0  0
    2.4926    0.7255    0.0000 C   0  0  0  0  0  0  0  0  0  0  0  0
    2.3518    2.2189    0.0000 O   0  0  0  0  0  0  0  0  0  0  0  0
    3.8563    0.1007    0.0000 O   0  0  0  0  0  0  0  0  0  0  0  0
  1  2  1  0
  2  3  1  0
  3  4  1  0
  4  5  1  0
  4  6  1  6
  6  7  1  0
  7  8  3  0
  2  9  1  1
  9 10  2  0
  9 11  1  0
  5  1  1  0
M  CHG  2   6  -1   7   1
M  END
>  <rName>  (1051) 
Pro_4RN3

>  <PQ_SYMBOL>  (1051) 
Pro_4RN3

>  <FULL_NAME>  (1051) 
(2S,4R)-4-azidopyrrolidine-2-carboxylic acid

>  <IUPAC_CONDENSED>  (1051) 
Pro(4R-N3)

>  <IUPAC>  (1051) 
(2S,4R)-4-azidopyrrolidine-2-carboxylic acid

>  <TYPE>  (1051) 
Backbone

>  <CLASS>  (1051) 
alpha

>  <ANALOG>  (1051) 
Pro

>  <MOL_WT>  (1051) 
156.14500000000004

>  <LOGP>  (1051) 
-0.05672000000000038

>  <TPSA>  (1051) 
91.58

>  <POPULARITY>  (1051) 
7.2

>  <PROTECTED>  (1051) 
TRUE

>  <SMILES>  (1051) 
N1[C@@H](C[C@H](C1)[N-][N+]#N)C(=O)O

>  <INCHIKEY>  (1051) 
PPRFZPZRQYPCER-DMTCNVIQSA-N

$$$$
Phg_2Cl
     RDKit          2D

 12 12  0  0  0  0  0  0  0  0999 V2000
   -1.5242   -1.9777    0.0000 N   0  0  0  0  0  0  0  0  0  0  0  0
   -1.2142   -0.5101    0.0000 C   0  0  0  0  0  0  0  0  0  0  0  0
    0.2118   -0.0447    0.0000 C   0  0  0  0  0  0  0  0  0  0  0  0
    0.5219    1.4229    0.0000 C   0  0  0  0  0  0  0  0  0  0  0  0
    1.9479    1.8882    0.0000 C   0  0  0  0  0  0  0  0  0  0  0  0
    3.0638    0.8859    0.0000 C   0  0  0  0  0  0  0  0  0  0  0  0
    2.7538   -0.5817    0.0000 C   0  0  0  0  0  0  0  0  0  0  0  0
    1.3278   -1.0470    0.0000 C   0  0  0  0  0  0  0  0  0  0  0  0
    1.0178   -2.5147    0.0000 Cl  0  0  0  0  0  0  0  0  0  0  0  0
   -2.3301    0.4922    0.0000 C   0  0  0  0  0  0  0  0  0  0  0  0
   -2.0201    1.9598    0.0000 O   0  0  0  0  0  0  0  0  0  0  0  0
   -3.7561    0.0269    0.0000 O   0  0  0  0  0  0  0  0  0  0  0  0
  2  1  1  6
  2  3  1  0
  3  4  2  0
  4  5  1  0
  5  6  2  0
  6  7  1  0
  7  8  2  0
  8  9  1  0
  2 10  1  0
 10 11  2  0
 10 12  1  0
  8  3  1  0
M  END
>  <rName>  (1052) 
Phg_2Cl

>  <PQ_SYMBOL>  (1052) 
Phg_2Cl

>  <FULL_NAME>  (1052) 
(2S)-2-amino-2-(2-chlorophenyl)acetic acid

>  <IUPAC_CONDENSED>  (1052) 
Phg(2-Cl)

>  <IUPAC>  (1052) 
(2S)-2-amino-2-(2-chlorophenyl)acetic acid

>  <TYPE>  (1052) 
Backbone

>  <CLASS>  (1052) 
alpha

>  <ANALOG>  (1052) 
X

>  <MOL_WT>  (1052) 
185.60999999999996

>  <LOGP>  (1052) 
1.4244

>  <TPSA>  (1052) 
63.32000000000001

>  <POPULARITY>  (1052) 
14

>  <PROTECTED>  (1052) 
TRUE

>  <SMILES>  (1052) 
N[C@@H](c1(ccccc1Cl))C(=O)O

>  <INCHIKEY>  (1052) 
LMIZLNPFTRQPSF-ZETCQYMHSA-N

$$$$
D-Ala_pyrazin2yl
     RDKit          2D

 12 12  0  0  0  0  0  0  0  0999 V2000
   -1.2391    1.6805    0.0000 N   0  0  0  0  0  0  0  0  0  0  0  0
   -1.6184    0.2292    0.0000 C   0  0  0  0  0  0  0  0  0  0  0  0
   -0.5513   -0.8249    0.0000 C   0  0  0  0  0  0  0  0  0  0  0  0
    0.8952   -0.4278    0.0000 C   0  0  0  0  0  0  0  0  0  0  0  0
    1.2745    1.0235    0.0000 C   0  0  0  0  0  0  0  0  0  0  0  0
    2.7210    1.4206    0.0000 N   0  0  0  0  0  0  0  0  0  0  0  0
    3.7882    0.3665    0.0000 C   0  0  0  0  0  0  0  0  0  0  0  0
    3.4088   -1.0848    0.0000 C   0  0  0  0  0  0  0  0  0  0  0  0
    1.9624   -1.4819    0.0000 N   0  0  0  0  0  0  0  0  0  0  0  0
   -3.0649   -0.1679    0.0000 C   0  0  0  0  0  0  0  0  0  0  0  0
   -3.4442   -1.6191    0.0000 O   0  0  0  0  0  0  0  0  0  0  0  0
   -4.1321    0.8862    0.0000 O   0  0  0  0  0  0  0  0  0  0  0  0
  2  1  1  6
  2  3  1  0
  3  4  1  0
  4  5  1  0
  5  6  2  0
  6  7  1  0
  7  8  2  0
  8  9  1  0
  2 10  1  0
 10 11  2  0
 10 12  1  0
  9  4  2  0
M  END
>  <rName>  (1053) 
D-Ala_pyrazin2yl

>  <PQ_SYMBOL>  (1053) 
D-Ala_pyrazin2yl

>  <FULL_NAME>  (1053) 
(2R)-2-amino-3-pyrazin-2-ylpropanoic acid

>  <IUPAC_CONDENSED>  (1053) 
D-Ala(pyrazin-2-yl)

>  <IUPAC>  (1053) 
(2R)-2-amino-3-(pyrazin-2-yl)propanoic acid

>  <TYPE>  (1053) 
Backbone

>  <CLASS>  (1053) 
alpha

>  <ANALOG>  (1053) 
Phe

>  <MOL_WT>  (1053) 
167.16799999999998

>  <LOGP>  (1053) 
-0.569

>  <TPSA>  (1053) 
89.10000000000001

>  <POPULARITY>  (1053) 
9.5

>  <PROTECTED>  (1053) 
TRUE

>  <SMILES>  (1053) 
N[C@H](Cc1(cnccn1))C(=O)O

>  <INCHIKEY>  (1053) 
JNNCNURVELPUNP-ZCFIWIBFSA-N

$$$$
Phe_bSMe
     RDKit          2D

 13 13  0  0  0  0  0  0  0  0999 V2000
    1.1110    1.8899    0.0000 N   0  0  0  0  0  0  0  0  0  0  0  0
    1.5339    0.4508    0.0000 C   0  0  0  0  0  0  0  0  0  0  0  0
    0.4991   -0.6350    0.0000 C   0  0  0  0  0  0  0  0  0  0  0  0
    0.9220   -2.0742    0.0000 C   0  0  0  0  0  0  0  0  0  0  0  0
   -0.9587   -0.2818    0.0000 C   0  0  0  0  0  0  0  0  0  0  0  0
   -1.9936   -1.3676    0.0000 C   0  0  0  0  0  0  0  0  0  0  0  0
   -3.4514   -1.0143    0.0000 C   0  0  0  0  0  0  0  0  0  0  0  0
   -3.8743    0.4248    0.0000 C   0  0  0  0  0  0  0  0  0  0  0  0
   -2.8395    1.5107    0.0000 C   0  0  0  0  0  0  0  0  0  0  0  0
   -1.3817    1.1574    0.0000 C   0  0  0  0  0  0  0  0  0  0  0  0
    2.9917    0.0975    0.0000 C   0  0  0  0  0  0  0  0  0  0  0  0
    3.4147   -1.3416    0.0000 O   0  0  0  0  0  0  0  0  0  0  0  0
    4.0266    1.1834    0.0000 O   0  0  0  0  0  0  0  0  0  0  0  0
  2  1  1  6
  2  3  1  0
  3  4  1  1
  3  5  1  0
  5  6  2  0
  6  7  1  0
  7  8  2  0
  8  9  1  0
  9 10  2  0
  2 11  1  0
 11 12  2  0
 11 13  1  0
 10  5  1  0
M  END
>  <rName>  (1054) 
Phe_bSMe

>  <PQ_SYMBOL>  (1054) 
Phe_bSMe

>  <FULL_NAME>  (1054) 
(2S,3S)-2-amino-3-phenylbutanoic acid

>  <IUPAC_CONDENSED>  (1054) 
Phe(bS-Me)

>  <IUPAC>  (1054) 
(2S,3S)-2-amino-3-phenylbutanoic acid

>  <TYPE>  (1054) 
Backbone

>  <CLASS>  (1054) 
alpha

>  <ANALOG>  (1054) 
Phe

>  <MOL_WT>  (1054) 
179.21899999999997

>  <LOGP>  (1054) 
1.202

>  <TPSA>  (1054) 
63.32000000000001

>  <POPULARITY>  (1054) 
22.3

>  <PROTECTED>  (1054) 
TRUE

>  <SMILES>  (1054) 
N[C@@H]([C@@H](C)c1(ccccc1))C(=O)O

>  <INCHIKEY>  (1054) 
IRZQDMYEJPNDEN-CBAPKCEASA-N

$$$$
Tyr_35diCl
     RDKit          2D

 15 15  0  0  0  0  0  0  0  0999 V2000
   -2.0609    1.6226    0.0000 N   0  0  0  0  0  0  0  0  0  0  0  0
   -2.4694    0.1793    0.0000 C   0  0  0  0  0  0  0  0  0  0  0  0
   -1.4237   -0.8961    0.0000 C   0  0  0  0  0  0  0  0  0  0  0  0
    0.0305   -0.5283    0.0000 C   0  0  0  0  0  0  0  0  0  0  0  0
    0.4390    0.9150    0.0000 C   0  0  0  0  0  0  0  0  0  0  0  0
    1.8932    1.2829    0.0000 C   0  0  0  0  0  0  0  0  0  0  0  0
    2.3017    2.7262    0.0000 Cl  0  0  0  0  0  0  0  0  0  0  0  0
    2.9389    0.2075    0.0000 C   0  0  0  0  0  0  0  0  0  0  0  0
    4.3931    0.5753    0.0000 O   0  0  0  0  0  0  0  0  0  0  0  0
    2.5304   -1.2358    0.0000 C   0  0  0  0  0  0  0  0  0  0  0  0
    3.5760   -2.3113    0.0000 Cl  0  0  0  0  0  0  0  0  0  0  0  0
    1.0762   -1.6037    0.0000 C   0  0  0  0  0  0  0  0  0  0  0  0
   -3.9236   -0.1886    0.0000 C   0  0  0  0  0  0  0  0  0  0  0  0
   -4.3321   -1.6319    0.0000 O   0  0  0  0  0  0  0  0  0  0  0  0
   -4.9693    0.8868    0.0000 O   0  0  0  0  0  0  0  0  0  0  0  0
  2  1  1  1
  2  3  1  0
  3  4  1  0
  4  5  2  0
  5  6  1  0
  6  7  1  0
  6  8  2  0
  8  9  1  0
  8 10  1  0
 10 11  1  0
 10 12  2  0
  2 13  1  0
 13 14  2  0
 13 15  1  0
 12  4  1  0
M  END
>  <rName>  (1055) 
Tyr_35diCl

>  <PQ_SYMBOL>  (1055) 
Tyr_35diCl

>  <FULL_NAME>  (1055) 
(2S)-2-amino-3-(3,5-dichloro-4-hydroxyphenyl)propanoic acid

>  <IUPAC_CONDENSED>  (1055) 
Tyr(3,5-diCl)

>  <IUPAC>  (1055) 
(2S)-2-amino-3-(3,5-dichloro-4-hydroxyphenyl)propanoic acid

>  <TYPE>  (1055) 
Backbone

>  <CLASS>  (1055) 
alpha

>  <ANALOG>  (1055) 
Tyr

>  <MOL_WT>  (1055) 
250.081

>  <LOGP>  (1055) 
1.6533999999999998

>  <TPSA>  (1055) 
83.55

>  <POPULARITY>  (1055) 
18.6

>  <PROTECTED>  (1055) 
TRUE

>  <SMILES>  (1055) 
N[C@@H](Cc1(cc(Cl)c(O)c(Cl)c1))C(=O)O

>  <INCHIKEY>  (1055) 
MPHURJQUHZHALJ-ZETCQYMHSA-N

$$$$
Nle_pentyl
     RDKit          2D

 14 13  0  0  0  0  0  0  0  0999 V2000
    3.8076    1.8684    0.0000 N   0  0  0  0  0  0  0  0  0  0  0  0
    3.8050    0.3684    0.0000 C   0  0  0  0  0  0  0  0  0  0  0  0
    2.5046   -0.3794    0.0000 C   0  0  0  0  0  0  0  0  0  0  0  0
    1.2069    0.3729    0.0000 C   0  0  0  0  0  0  0  0  0  0  0  0
   -0.0934   -0.3748    0.0000 C   0  0  0  0  0  0  0  0  0  0  0  0
   -1.3912    0.3774    0.0000 C   0  0  0  0  0  0  0  0  0  0  0  0
   -2.6915   -0.3703    0.0000 C   0  0  0  0  0  0  0  0  0  0  0  0
   -3.9892    0.3819    0.0000 C   0  0  0  0  0  0  0  0  0  0  0  0
   -5.2896   -0.3658    0.0000 C   0  0  0  0  0  0  0  0  0  0  0  0
   -6.5873    0.3865    0.0000 C   0  0  0  0  0  0  0  0  0  0  0  0
   -7.8877   -0.3613    0.0000 C   0  0  0  0  0  0  0  0  0  0  0  0
    5.1027   -0.3839    0.0000 C   0  0  0  0  0  0  0  0  0  0  0  0
    5.1001   -1.8839    0.0000 O   0  0  0  0  0  0  0  0  0  0  0  0
    6.4030    0.3638    0.0000 O   0  0  0  0  0  0  0  0  0  0  0  0
  2  1  1  6
  2  3  1  0
  3  4  1  0
  4  5  1  0
  5  6  1  0
  6  7  1  0
  7  8  1  0
  8  9  1  0
  9 10  1  0
 10 11  1  0
  2 12  1  0
 12 13  2  0
 12 14  1  0
M  END
>  <rName>  (1056) 
Nle_pentyl

>  <PQ_SYMBOL>  (1056) 
Nle_pentyl

>  <FULL_NAME>  (1056) 
(2S)-2-aminoundecanoic acid

>  <IUPAC_CONDENSED>  (1056) 
Nle(pentyl)

>  <IUPAC>  (1056) 
(2S)-2-aminoundecanoic acid

>  <TYPE>  (1056) 
Backbone

>  <CLASS>  (1056) 
alpha

>  <ANALOG>  (1056) 
X

>  <MOL_WT>  (1056) 
201.31

>  <LOGP>  (1056) 
2.5390000000000006

>  <TPSA>  (1056) 
63.32000000000001

>  <POPULARITY>  (1056) 
14.9

>  <PROTECTED>  (1056) 
TRUE

>  <SMILES>  (1056) 
N[C@@H](CCCCCCCCC)C(=O)O

>  <INCHIKEY>  (1056) 
HASUJDLTAYUWCO-JTQLQIEISA-N

$$$$
aMeNle_vinyl
     RDKit          2D

 12 11  0  0  0  0  0  0  0  0999 V2000
   -1.1275    1.8149    0.0000 N   0  0  0  0  0  0  0  0  0  0  0  0
   -1.9492    0.5601    0.0000 C   0  0  0  0  0  0  0  0  0  0  0  0
   -3.2041    1.3818    0.0000 C   0  0  0  0  0  0  0  0  0  0  0  0
   -0.6943   -0.2617    0.0000 C   0  0  0  0  0  0  0  0  0  0  0  0
    0.6448    0.4142    0.0000 C   0  0  0  0  0  0  0  0  0  0  0  0
    1.8997   -0.4075    0.0000 C   0  0  0  0  0  0  0  0  0  0  0  0
    3.2388    0.2684    0.0000 C   0  0  0  0  0  0  0  0  0  0  0  0
    4.4937   -0.5533    0.0000 C   0  0  0  0  0  0  0  0  0  0  0  0
    5.8327    0.1226    0.0000 C   0  0  0  0  0  0  0  0  0  0  0  0
   -2.7709   -0.6948    0.0000 C   0  0  0  0  0  0  0  0  0  0  0  0
   -4.2686   -0.6106    0.0000 O   0  0  0  0  0  0  0  0  0  0  0  0
   -2.0950   -2.0339    0.0000 O   0  0  0  0  0  0  0  0  0  0  0  0
  1  2  1  0
  2  3  1  6
  2  4  1  0
  4  5  1  0
  5  6  1  0
  6  7  1  0
  7  8  1  0
  8  9  2  0
  2 10  1  0
 10 11  2  0
 10 12  1  0
M  END
>  <rName>  (1057) 
aMeNle_vinyl

>  <PQ_SYMBOL>  (1057) 
aMeNle_vinyl

>  <FULL_NAME>  (1057) 
(2S)-2-amino-2-methyloct-7-enoic acid

>  <IUPAC_CONDENSED>  (1057) 
aMeNle(vinyl)

>  <IUPAC>  (1057) 
(2S)-2-amino-2-methyloct-7-enoic acid

>  <TYPE>  (1057) 
Backbone

>  <CLASS>  (1057) 
alpha

>  <ANALOG>  (1057) 
X

>  <MOL_WT>  (1057) 
171.24

>  <LOGP>  (1057) 
1.5348

>  <TPSA>  (1057) 
63.32000000000001

>  <POPULARITY>  (1057) 
8.5

>  <PROTECTED>  (1057) 
TRUE

>  <SMILES>  (1057) 
N[C@@](C)(CCCCC=C)C(=O)O

>  <INCHIKEY>  (1057) 
LZZHLUIHALMSMF-VIFPVBQESA-N

$$$$
D-Pra
     RDKit          2D

  8  7  0  0  0  0  0  0  0  0999 V2000
    0.0877   -1.7162    0.0000 N   0  0  0  0  0  0  0  0  0  0  0  0
   -0.2706   -0.2596    0.0000 C   0  0  0  0  0  0  0  0  0  0  0  0
    0.8117    0.7789    0.0000 C   0  0  0  0  0  0  0  0  0  0  0  0
    2.2523    0.3609    0.0000 C   0  0  0  0  0  0  0  0  0  0  0  0
    3.6929   -0.0571    0.0000 C   0  0  0  0  0  0  0  0  0  0  0  0
   -1.7112    0.1584    0.0000 C   0  0  0  0  0  0  0  0  0  0  0  0
   -2.0694    1.6149    0.0000 O   0  0  0  0  0  0  0  0  0  0  0  0
   -2.7934   -0.8802    0.0000 O   0  0  0  0  0  0  0  0  0  0  0  0
  2  1  1  1
  2  3  1  0
  3  4  1  0
  4  5  3  0
  2  6  1  0
  6  7  2  0
  6  8  1  0
M  END
>  <rName>  (1058) 
D-Pra

>  <PQ_SYMBOL>  (1058) 
D-Pra

>  <FULL_NAME>  (1058) 
(2R)-2-aminopent-4-ynoic acid

>  <IUPAC_CONDENSED>  (1058) 
D-Pra

>  <IUPAC>  (1058) 
(2R)-2-aminopent-4-ynoic acid

>  <TYPE>  (1058) 
Backbone

>  <CLASS>  (1058) 
alpha

>  <ANALOG>  (1058) 
Val

>  <MOL_WT>  (1058) 
113.11599999999997

>  <LOGP>  (1058) 
-0.5784000000000002

>  <TPSA>  (1058) 
63.32000000000001

>  <POPULARITY>  (1058) 
14.8

>  <PROTECTED>  (1058) 
TRUE

>  <SMILES>  (1058) 
N[C@H](CC#C)C(=O)O

>  <INCHIKEY>  (1058) 
DGYHPLMPMRKMPD-SCSAIBSYSA-N

$$$$
4-thia-Pip
     RDKit          2D

  9  9  0  0  0  0  0  0  0  0999 V2000
    0.4167   -1.2990    0.0000 N   0  0  0  0  0  0  0  0  0  0  0  0
   -0.3333    0.0000    0.0000 C   0  0  0  0  0  0  0  0  0  0  0  0
    0.4167    1.2990    0.0000 C   0  0  0  0  0  0  0  0  0  0  0  0
    1.9167    1.2990    0.0000 S   0  0  0  0  0  0  0  0  0  0  0  0
    2.6667    0.0000    0.0000 C   0  0  0  0  0  0  0  0  0  0  0  0
    1.9167   -1.2990    0.0000 C   0  0  0  0  0  0  0  0  0  0  0  0
   -1.8333   -0.0000    0.0000 C   0  0  0  0  0  0  0  0  0  0  0  0
   -2.5833   -1.2990    0.0000 O   0  0  0  0  0  0  0  0  0  0  0  0
   -2.5833    1.2990    0.0000 O   0  0  0  0  0  0  0  0  0  0  0  0
  1  2  1  0
  2  3  1  0
  3  4  1  0
  4  5  1  0
  5  6  1  0
  2  7  1  1
  7  8  2  0
  7  9  1  0
  6  1  1  0
M  END
>  <rName>  (1059) 
4-thia-Pip

>  <PQ_SYMBOL>  (1059) 
4-thia-Pip

>  <FULL_NAME>  (1059) 
(3S)-thiomorpholine-3-carboxylic acid

>  <IUPAC_CONDENSED>  (1059) 
4-thia-Pip

>  <IUPAC>  (1059) 
(3S)-thiomorpholine-3-carboxylic acid

>  <TYPE>  (1059) 
Backbone

>  <CLASS>  (1059) 
alpha

>  <ANALOG>  (1059) 
Pro

>  <MOL_WT>  (1059) 
147.199

>  <LOGP>  (1059) 
-0.22400000000000003

>  <TPSA>  (1059) 
49.33

>  <POPULARITY>  (1059) 
9.5

>  <PROTECTED>  (1059) 
TRUE

>  <SMILES>  (1059) 
N1[C@H](CSCC1)C(=O)O

>  <INCHIKEY>  (1059) 
JOKIQGQOKXGHDV-SCSAIBSYSA-N

$$$$
Abu_tetrazol5yl
     RDKit          2D

 12 12  0  0  0  0  0  0  0  0999 V2000
   -2.2999   -1.9362    0.0000 N   0  0  0  0  0  0  0  0  0  0  0  0
   -2.0700   -0.4539    0.0000 C   0  0  0  0  0  0  0  0  0  0  0  0
   -0.6714    0.0881    0.0000 C   0  0  0  0  0  0  0  0  0  0  0  0
    0.4974   -0.8521    0.0000 C   0  0  0  0  0  0  0  0  0  0  0  0
    1.8960   -0.3101    0.0000 C   0  0  0  0  0  0  0  0  0  0  0  0
    3.1566   -1.1230    0.0000 N   0  0  0  0  0  0  0  0  0  0  0  0
    4.3193   -0.1753    0.0000 N   0  0  0  0  0  0  0  0  0  0  0  0
    3.7773    1.2234    0.0000 N   0  0  0  0  0  0  0  0  0  0  0  0
    2.2796    1.1400    0.0000 N   0  0  0  0  0  0  0  0  0  0  0  0
   -3.2387    0.4863    0.0000 C   0  0  0  0  0  0  0  0  0  0  0  0
   -3.0088    1.9686    0.0000 O   0  0  0  0  0  0  0  0  0  0  0  0
   -4.6374   -0.0557    0.0000 O   0  0  0  0  0  0  0  0  0  0  0  0
  2  1  1  6
  2  3  1  0
  3  4  1  0
  4  5  1  0
  5  6  2  0
  6  7  1  0
  7  8  2  0
  8  9  1  0
  2 10  1  0
 10 11  2  0
 10 12  1  0
  9  5  1  0
M  END
>  <rName>  (1060) 
Abu_tetrazol5yl

>  <PQ_SYMBOL>  (1060) 
Abu_tetrazol5yl

>  <FULL_NAME>  (1060) 
(2S)-2-amino-4-(2H-tetrazol-5-yl)butanoic acid

>  <IUPAC_CONDENSED>  (1060) 
Abu(tetrazol-5-yl)

>  <IUPAC>  (1060) 
(2S)-2-amino-4-(1H-tetrazol-5-yl)butanoic acid

>  <TYPE>  (1060) 
Backbone

>  <CLASS>  (1060) 
alpha

>  <ANALOG>  (1060) 
Phe

>  <MOL_WT>  (1060) 
171.16000000000003

>  <LOGP>  (1060) 
-1.4558000000000002

>  <TPSA>  (1060) 
117.77999999999999

>  <POPULARITY>  (1060) 
11

>  <PROTECTED>  (1060) 
TRUE

>  <SMILES>  (1060) 
N[C@@H](CCc1(nnn[nH]1))C(=O)O

>  <INCHIKEY>  (1060) 
DXFDIQNGJWQJGA-VKHMYHEASA-N

$$$$
Phe_24diF
     RDKit          2D

 14 14  0  0  0  0  0  0  0  0999 V2000
   -1.7174    1.8436    0.0000 N   0  0  0  0  0  0  0  0  0  0  0  0
   -2.1036    0.3942    0.0000 C   0  0  0  0  0  0  0  0  0  0  0  0
   -1.0414   -0.6650    0.0000 C   0  0  0  0  0  0  0  0  0  0  0  0
    0.4069   -0.2747    0.0000 C   0  0  0  0  0  0  0  0  0  0  0  0
    0.7931    1.1747    0.0000 C   0  0  0  0  0  0  0  0  0  0  0  0
    2.2415    1.5649    0.0000 C   0  0  0  0  0  0  0  0  0  0  0  0
    3.3036    0.5057    0.0000 C   0  0  0  0  0  0  0  0  0  0  0  0
    4.7520    0.8960    0.0000 F   0  0  0  0  0  0  0  0  0  0  0  0
    2.9174   -0.9437    0.0000 C   0  0  0  0  0  0  0  0  0  0  0  0
    1.4691   -1.3339    0.0000 C   0  0  0  0  0  0  0  0  0  0  0  0
    1.0829   -2.7834    0.0000 F   0  0  0  0  0  0  0  0  0  0  0  0
   -3.5519    0.0039    0.0000 C   0  0  0  0  0  0  0  0  0  0  0  0
   -3.9381   -1.4455    0.0000 O   0  0  0  0  0  0  0  0  0  0  0  0
   -4.6140    1.0631    0.0000 O   0  0  0  0  0  0  0  0  0  0  0  0
  2  1  1  1
  2  3  1  0
  3  4  1  0
  4  5  1  0
  5  6  2  0
  6  7  1  0
  7  8  1  0
  7  9  2  0
  9 10  1  0
 10 11  1  0
  2 12  1  0
 12 13  2  0
 12 14  1  0
 10  4  2  0
M  END
>  <rName>  (1061) 
Phe_24diF

>  <PQ_SYMBOL>  (1061) 
Phe_24diF

>  <FULL_NAME>  (1061) 
(2S)-2-amino-3-(2,4-difluorophenyl)propanoic acid

>  <IUPAC_CONDENSED>  (1061) 
Phe(2,4-diF)

>  <IUPAC>  (1061) 
(2S)-2-amino-3-(2,4-difluorophenyl)propanoic acid

>  <TYPE>  (1061) 
Backbone

>  <CLASS>  (1061) 
alpha

>  <ANALOG>  (1061) 
Phe

>  <MOL_WT>  (1061) 
201.17199999999997

>  <LOGP>  (1061) 
0.9192

>  <TPSA>  (1061) 
63.32000000000001

>  <POPULARITY>  (1061) 
12.2

>  <PROTECTED>  (1061) 
TRUE

>  <SMILES>  (1061) 
N[C@@H](Cc1(ccc(F)cc1F))C(=O)O

>  <INCHIKEY>  (1061) 
UEFLPVKMPDEMFW-QMMMGPOBSA-N

$$$$
Ala_pyrazin2yl
     RDKit          2D

 12 12  0  0  0  0  0  0  0  0999 V2000
   -1.2391    1.6805    0.0000 N   0  0  0  0  0  0  0  0  0  0  0  0
   -1.6184    0.2292    0.0000 C   0  0  0  0  0  0  0  0  0  0  0  0
   -0.5513   -0.8249    0.0000 C   0  0  0  0  0  0  0  0  0  0  0  0
    0.8952   -0.4278    0.0000 C   0  0  0  0  0  0  0  0  0  0  0  0
    1.2745    1.0235    0.0000 C   0  0  0  0  0  0  0  0  0  0  0  0
    2.7210    1.4206    0.0000 N   0  0  0  0  0  0  0  0  0  0  0  0
    3.7882    0.3665    0.0000 C   0  0  0  0  0  0  0  0  0  0  0  0
    3.4088   -1.0848    0.0000 C   0  0  0  0  0  0  0  0  0  0  0  0
    1.9624   -1.4819    0.0000 N   0  0  0  0  0  0  0  0  0  0  0  0
   -3.0649   -0.1679    0.0000 C   0  0  0  0  0  0  0  0  0  0  0  0
   -3.4442   -1.6191    0.0000 O   0  0  0  0  0  0  0  0  0  0  0  0
   -4.1321    0.8862    0.0000 O   0  0  0  0  0  0  0  0  0  0  0  0
  2  1  1  1
  2  3  1  0
  3  4  1  0
  4  5  1  0
  5  6  2  0
  6  7  1  0
  7  8  2  0
  8  9  1  0
  2 10  1  0
 10 11  2  0
 10 12  1  0
  9  4  2  0
M  END
>  <rName>  (1062) 
Ala_pyrazin2yl

>  <PQ_SYMBOL>  (1062) 
Ala_pyrazin2yl

>  <FULL_NAME>  (1062) 
(2S)-2-amino-3-pyrazin-2-ylpropanoic acid

>  <IUPAC_CONDENSED>  (1062) 
Ala(pyrazin-2-yl)

>  <IUPAC>  (1062) 
(2S)-2-amino-3-(pyrazin-2-yl)propanoic acid

>  <TYPE>  (1062) 
Backbone

>  <CLASS>  (1062) 
alpha

>  <ANALOG>  (1062) 
Phe

>  <MOL_WT>  (1062) 
167.16799999999998

>  <LOGP>  (1062) 
-0.569

>  <TPSA>  (1062) 
89.10000000000001

>  <POPULARITY>  (1062) 
8.9

>  <PROTECTED>  (1062) 
TRUE

>  <SMILES>  (1062) 
N[C@@H](Cc1(cnccn1))C(=O)O

>  <INCHIKEY>  (1062) 
JNNCNURVELPUNP-LURJTMIESA-N

$$$$
NMeOEt-G
     RDKit          2D

  9  8  0  0  0  0  0  0  0  0999 V2000
   -0.2960    0.1534    0.0000 N   0  0  0  0  0  0  0  0  0  0  0  0
    1.0358   -0.5368    0.0000 C   0  0  0  0  0  0  0  0  0  0  0  0
    2.2994    0.2714    0.0000 C   0  0  0  0  0  0  0  0  0  0  0  0
    3.6312   -0.4188    0.0000 O   0  0  0  0  0  0  0  0  0  0  0  0
    4.8948    0.3895    0.0000 C   0  0  0  0  0  0  0  0  0  0  0  0
   -1.5596   -0.6549    0.0000 C   0  0  0  0  0  0  0  0  0  0  0  0
   -2.8913    0.0353    0.0000 C   0  0  0  0  0  0  0  0  0  0  0  0
   -2.9595    1.5338    0.0000 O   0  0  0  0  0  0  0  0  0  0  0  0
   -4.1550   -0.7729    0.0000 O   0  0  0  0  0  0  0  0  0  0  0  0
  1  2  1  0
  2  3  1  0
  3  4  1  0
  4  5  1  0
  1  6  1  0
  6  7  1  0
  7  8  2  0
  7  9  1  0
M  END
>  <rName>  (1063) 
NMeOEt-G

>  <PQ_SYMBOL>  (1063) 
NMeOEt-G

>  <FULL_NAME>  (1063) 
2-(2-methoxyethylamino)acetic acid

>  <IUPAC_CONDENSED>  (1063) 
MeOEt-Gly

>  <IUPAC>  (1063) 
2-((2-methoxyethyl)amino)acetic acid

>  <TYPE>  (1063) 
Backbone

>  <CLASS>  (1063) 
alpha

>  <ANALOG>  (1063) 
Gly

>  <MOL_WT>  (1063) 
133.147

>  <LOGP>  (1063) 
-0.6929999999999998

>  <TPSA>  (1063) 
58.56

>  <POPULARITY>  (1063) 
21.9

>  <PROTECTED>  (1063) 
TRUE

>  <SMILES>  (1063) 
N(CCOC)CC(=O)O

>  <INCHIKEY>  (1063) 
RHLQNMMWMDYKFY-UHFFFAOYSA-N

$$$$
NcHex-G
     RDKit          2D

 11 11  0  0  0  0  0  0  0  0999 V2000
   -0.6853   -0.6503    0.0000 N   0  0  0  0  0  0  0  0  0  0  0  0
    0.7732   -0.3002    0.0000 C   0  0  0  0  0  0  0  0  0  0  0  0
    1.1993    1.1380    0.0000 C   0  0  0  0  0  0  0  0  0  0  0  0
    2.6579    1.4881    0.0000 C   0  0  0  0  0  0  0  0  0  0  0  0
    3.6904    0.4000    0.0000 C   0  0  0  0  0  0  0  0  0  0  0  0
    3.2643   -1.0382    0.0000 C   0  0  0  0  0  0  0  0  0  0  0  0
    1.8057   -1.3883    0.0000 C   0  0  0  0  0  0  0  0  0  0  0  0
   -1.7178    0.4378    0.0000 C   0  0  0  0  0  0  0  0  0  0  0  0
   -3.1764    0.0877    0.0000 C   0  0  0  0  0  0  0  0  0  0  0  0
   -3.6025   -1.3505    0.0000 O   0  0  0  0  0  0  0  0  0  0  0  0
   -4.2089    1.1758    0.0000 O   0  0  0  0  0  0  0  0  0  0  0  0
  1  2  1  0
  2  3  1  0
  3  4  1  0
  4  5  1  0
  5  6  1  0
  6  7  1  0
  1  8  1  0
  8  9  1  0
  9 10  2  0
  9 11  1  0
  7  2  1  0
M  END
>  <rName>  (1064) 
NcHex-G

>  <PQ_SYMBOL>  (1064) 
NcHex-G

>  <FULL_NAME>  (1064) 
2-(cyclohexylamino)acetic acid

>  <IUPAC_CONDENSED>  (1064) 
N-cHex-Gly

>  <IUPAC>  (1064) 
2-(cyclohexylamino)acetic acid

>  <TYPE>  (1064) 
Backbone

>  <CLASS>  (1064) 
alpha

>  <ANALOG>  (1064) 
Gly

>  <MOL_WT>  (1064) 
157.21300000000002

>  <LOGP>  (1064) 
0.9932999999999998

>  <TPSA>  (1064) 
49.33

>  <POPULARITY>  (1064) 
20.1

>  <PROTECTED>  (1064) 
TRUE

>  <SMILES>  (1064) 
N(C1(CCCCC1))CC(=O)O

>  <INCHIKEY>  (1064) 
OQMYZVWIXPPDDE-UHFFFAOYSA-N

$$$$
Ala_CN
     RDKit          2D

  8  7  0  0  0  0  0  0  0  0999 V2000
    0.0877   -1.7162    0.0000 N   0  0  0  0  0  0  0  0  0  0  0  0
   -0.2706   -0.2596    0.0000 C   0  0  0  0  0  0  0  0  0  0  0  0
    0.8117    0.7789    0.0000 C   0  0  0  0  0  0  0  0  0  0  0  0
    2.2523    0.3609    0.0000 C   0  0  0  0  0  0  0  0  0  0  0  0
    3.6929   -0.0571    0.0000 N   0  0  0  0  0  0  0  0  0  0  0  0
   -1.7112    0.1584    0.0000 C   0  0  0  0  0  0  0  0  0  0  0  0
   -2.0694    1.6149    0.0000 O   0  0  0  0  0  0  0  0  0  0  0  0
   -2.7934   -0.8802    0.0000 O   0  0  0  0  0  0  0  0  0  0  0  0
  2  1  1  6
  2  3  1  0
  3  4  1  0
  4  5  3  0
  2  6  1  0
  6  7  2  0
  6  8  1  0
M  END
>  <rName>  (1065) 
Ala_CN

>  <PQ_SYMBOL>  (1065) 
Ala_CN

>  <FULL_NAME>  (1065) 
(2S)-2-amino-3-cyanopropanoic acid

>  <IUPAC_CONDENSED>  (1065) 
Ala(CN)

>  <IUPAC>  (1065) 
(2S)-2-amino-3-cyanopropanoic acid

>  <TYPE>  (1065) 
Backbone

>  <CLASS>  (1065) 
alpha

>  <ANALOG>  (1065) 
X

>  <MOL_WT>  (1065) 
114.10399999999998

>  <LOGP>  (1065) 
-0.6880200000000001

>  <TPSA>  (1065) 
87.11

>  <POPULARITY>  (1065) 
14.1

>  <PROTECTED>  (1065) 
TRUE

>  <SMILES>  (1065) 
N[C@@H](CC#N)C(=O)O

>  <INCHIKEY>  (1065) 
BXRLWGXPSRYJDZ-VKHMYHEASA-N

$$$$
Phe_SO3H
     RDKit          2D

 16 16  0  0  0  0  0  0  0  0999 V2000
   -2.5021    1.6866    0.0000 N   0  0  0  0  0  0  0  0  0  0  0  0
   -3.0051    0.2735    0.0000 C   0  0  0  0  0  0  0  0  0  0  0  0
   -2.0328   -0.8687    0.0000 C   0  0  0  0  0  0  0  0  0  0  0  0
   -0.5574   -0.5977    0.0000 C   0  0  0  0  0  0  0  0  0  0  0  0
   -0.0545    0.8155    0.0000 C   0  0  0  0  0  0  0  0  0  0  0  0
    1.4208    1.0865    0.0000 C   0  0  0  0  0  0  0  0  0  0  0  0
    2.3932   -0.0557    0.0000 C   0  0  0  0  0  0  0  0  0  0  0  0
    1.8902   -1.4688    0.0000 C   0  0  0  0  0  0  0  0  0  0  0  0
    0.4149   -1.7398    0.0000 C   0  0  0  0  0  0  0  0  0  0  0  0
    3.8685    0.2153    0.0000 S   0  0  0  0  0  0  0  0  0  0  0  0
    4.1395   -1.2600    0.0000 O   0  0  0  0  0  0  0  0  0  0  0  0
    3.5975    1.6906    0.0000 O   0  0  0  0  0  0  0  0  0  0  0  0
    5.3438    0.4863    0.0000 O   0  0  0  0  0  0  0  0  0  0  0  0
   -4.4804    0.0025    0.0000 C   0  0  0  0  0  0  0  0  0  0  0  0
   -4.9834   -1.4107    0.0000 O   0  0  0  0  0  0  0  0  0  0  0  0
   -5.4528    1.1446    0.0000 O   0  0  0  0  0  0  0  0  0  0  0  0
  2  1  1  1
  2  3  1  0
  3  4  1  0
  4  5  1  0
  5  6  2  0
  6  7  1  0
  7  8  2  0
  8  9  1  0
  7 10  1  0
 10 11  2  0
 10 12  2  0
 10 13  1  0
  2 14  1  0
 14 15  2  0
 14 16  1  0
  9  4  2  0
M  END
>  <rName>  (1066) 
Phe_SO3H

>  <PQ_SYMBOL>  (1066) 
Phe_SO3H

>  <FULL_NAME>  (1066) 
(2S)-2-amino-3-(4-sulfophenyl)propanoic acid

>  <IUPAC_CONDENSED>  (1066) 
Phe(SO3H)

>  <IUPAC>  (1066) 
(2S)-2-amino-3-(4-sulfophenyl)propanoic acid

>  <TYPE>  (1066) 
Backbone

>  <CLASS>  (1066) 
alpha

>  <ANALOG>  (1066) 
Phe

>  <MOL_WT>  (1066) 
245.25599999999994

>  <LOGP>  (1066) 
-0.11230000000000018

>  <TPSA>  (1066) 
117.69000000000001

>  <POPULARITY>  (1066) 
13.2

>  <PROTECTED>  (1066) 
TRUE

>  <SMILES>  (1066) 
N[C@@H](Cc1(ccc(cc1)S(=O)(=O)O))C(=O)O

>  <INCHIKEY>  (1066) 
ALQIUGWFHKQQHV-QMMMGPOBSA-N

$$$$
Tpi
     RDKit          2D

 16 18  0  0  0  0  0  0  0  0999 V2000
   -2.5143   -1.4629    0.0000 N   0  0  0  0  0  0  0  0  0  0  0  0
   -2.4824    0.0368    0.0000 C   0  0  0  0  0  0  0  0  0  0  0  0
   -1.1676    0.7589    0.0000 C   0  0  0  0  0  0  0  0  0  0  0  0
    0.1151   -0.0186    0.0000 C   0  0  0  0  0  0  0  0  0  0  0  0
    0.0831   -1.5183    0.0000 C   0  0  0  0  0  0  0  0  0  0  0  0
   -1.2316   -2.2404    0.0000 C   0  0  0  0  0  0  0  0  0  0  0  0
    1.4995   -2.0121    0.0000 N   0  0  0  0  0  0  0  0  0  0  0  0
    2.4069   -0.8176    0.0000 C   0  0  0  0  0  0  0  0  0  0  0  0
    3.9017   -0.6927    0.0000 C   0  0  0  0  0  0  0  0  0  0  0  0
    4.5408    0.6643    0.0000 C   0  0  0  0  0  0  0  0  0  0  0  0
    3.6852    1.8964    0.0000 C   0  0  0  0  0  0  0  0  0  0  0  0
    2.1904    1.7714    0.0000 C   0  0  0  0  0  0  0  0  0  0  0  0
    1.5513    0.4144    0.0000 C   0  0  0  0  0  0  0  0  0  0  0  0
   -3.7651    0.8143    0.0000 C   0  0  0  0  0  0  0  0  0  0  0  0
   -5.0799    0.0921    0.0000 O   0  0  0  0  0  0  0  0  0  0  0  0
   -3.7332    2.3139    0.0000 O   0  0  0  0  0  0  0  0  0  0  0  0
  1  2  1  0
  2  3  1  0
  3  4  1  0
  4  5  2  0
  5  6  1  0
  5  7  1  0
  7  8  1  0
  8  9  2  0
  9 10  1  0
 10 11  2  0
 11 12  1  0
 12 13  2  0
  2 14  1  6
 14 15  2  0
 14 16  1  0
  6  1  1  0
 13  4  1  0
 13  8  1  0
M  END
>  <rName>  (1067) 
Tpi

>  <PQ_SYMBOL>  (1067) 
Tpi

>  <FULL_NAME>  (1067) 
(3S)-2,3,4,9-tetrahydro-1H-pyrido[3,4-b]indole-3-carboxylic acid

>  <IUPAC_CONDENSED>  (1067) 
Tpi

>  <IUPAC>  (1067) 
(12S)-8,11-diazatricyclo[7.4.0.0^{2,7}]trideca-1(9),2,4,6-tetraene-12-carboxylic acid

>  <TYPE>  (1067) 
Backbone

>  <CLASS>  (1067) 
alpha

>  <ANALOG>  (1067) 
Pro

>  <MOL_WT>  (1067) 
216.24

>  <LOGP>  (1067) 
1.2668

>  <TPSA>  (1067) 
65.12

>  <POPULARITY>  (1067) 
30.2

>  <PROTECTED>  (1067) 
TRUE

>  <SMILES>  (1067) 
N1[C@@H](Cc2(c(C1)[nH]c3(ccccc23)))C(=O)O

>  <INCHIKEY>  (1067) 
FSNCEEGOMTYXKY-JTQLQIEISA-N

$$$$
THIQ1S-1-CO2H
     RDKit          2D

 13 14  0  0  0  0  0  0  0  0999 V2000
   -1.5843    1.6659    0.0000 N   0  0  0  0  0  0  0  0  0  0  0  0
   -1.1961    0.2170    0.0000 C   0  0  0  0  0  0  0  0  0  0  0  0
    0.2528   -0.1712    0.0000 C   0  0  0  0  0  0  0  0  0  0  0  0
    0.6410   -1.6201    0.0000 C   0  0  0  0  0  0  0  0  0  0  0  0
    2.0899   -2.0083    0.0000 C   0  0  0  0  0  0  0  0  0  0  0  0
    3.1505   -0.9476    0.0000 C   0  0  0  0  0  0  0  0  0  0  0  0
    2.7623    0.5013    0.0000 C   0  0  0  0  0  0  0  0  0  0  0  0
    1.3134    0.8895    0.0000 C   0  0  0  0  0  0  0  0  0  0  0  0
    0.9252    2.3384    0.0000 C   0  0  0  0  0  0  0  0  0  0  0  0
   -0.5237    2.7266    0.0000 C   0  0  0  0  0  0  0  0  0  0  0  0
   -2.2568   -0.8436    0.0000 C   0  0  0  0  0  0  0  0  0  0  0  0
   -1.8686   -2.2925    0.0000 O   0  0  0  0  0  0  0  0  0  0  0  0
   -3.7057   -0.4554    0.0000 O   0  0  0  0  0  0  0  0  0  0  0  0
  1  2  1  0
  2  3  1  0
  3  4  2  0
  4  5  1  0
  5  6  2  0
  6  7  1  0
  7  8  2  0
  8  9  1  0
  9 10  1  0
  2 11  1  1
 11 12  2  0
 11 13  1  0
  8  3  1  0
 10  1  1  0
M  END
>  <rName>  (1068) 
THIQ1S-1-CO2H

>  <PQ_SYMBOL>  (1068) 
THIQ1S-1-CO2H

>  <FULL_NAME>  (1068) 
(1S)-1,2,3,4-tetrahydroisoquinoline-1-carboxylic acid

>  <IUPAC_CONDENSED>  (1068) 
THIQ(1S)-1-CO2H

>  <IUPAC>  (1068) 
(2S)-3-azabicyclo[4.4.0]deca-1(10),6,8-triene-2-carboxylic acid

>  <TYPE>  (1068) 
Backbone

>  <CLASS>  (1068) 
alpha

>  <ANALOG>  (1068) 
Pro

>  <MOL_WT>  (1068) 
177.20299999999997

>  <LOGP>  (1068) 
0.958

>  <TPSA>  (1068) 
49.33

>  <POPULARITY>  (1068) 
13.6

>  <PROTECTED>  (1068) 
TRUE

>  <SMILES>  (1068) 
N2[C@@H](c1(ccccc1CC2))C(=O)O

>  <INCHIKEY>  (1068) 
OXFGRWIKQDSSLY-VIFPVBQESA-N

$$$$
Gly_thien2yl
     RDKit          2D

 10 10  0  0  0  0  0  0  0  0999 V2000
   -1.2726   -2.0834    0.0000 N   0  0  0  0  0  0  0  0  0  0  0  0
   -0.8797   -0.6358    0.0000 C   0  0  0  0  0  0  0  0  0  0  0  0
    0.5705   -0.2522    0.0000 C   0  0  0  0  0  0  0  0  0  0  0  0
    1.7331   -1.2000    0.0000 C   0  0  0  0  0  0  0  0  0  0  0  0
    2.9938   -0.3872    0.0000 C   0  0  0  0  0  0  0  0  0  0  0  0
    2.6103    1.0630    0.0000 C   0  0  0  0  0  0  0  0  0  0  0  0
    1.1126    1.1464    0.0000 S   0  0  0  0  0  0  0  0  0  0  0  0
   -1.9369    0.4284    0.0000 C   0  0  0  0  0  0  0  0  0  0  0  0
   -1.5439    1.8760    0.0000 O   0  0  0  0  0  0  0  0  0  0  0  0
   -3.3870    0.0449    0.0000 O   0  0  0  0  0  0  0  0  0  0  0  0
  2  1  1  6
  2  3  1  0
  3  4  2  0
  4  5  1  0
  5  6  2  0
  6  7  1  0
  2  8  1  0
  8  9  2  0
  8 10  1  0
  7  3  1  0
M  END
>  <rName>  (1069) 
Gly_thien2yl

>  <PQ_SYMBOL>  (1069) 
Gly_thien2yl

>  <FULL_NAME>  (1069) 
(2R)-2-amino-2-thiophen-2-ylacetic acid

>  <IUPAC_CONDENSED>  (1069) 
Gly(thien-2-yl)

>  <IUPAC>  (1069) 
(2R)-2-amino-2-(thiophen-2-yl)acetic acid

>  <TYPE>  (1069) 
Backbone

>  <CLASS>  (1069) 
alpha

>  <ANALOG>  (1069) 
X

>  <MOL_WT>  (1069) 
157.194

>  <LOGP>  (1069) 
0.8325000000000002

>  <TPSA>  (1069) 
63.32000000000001

>  <POPULARITY>  (1069) 
10.2

>  <PROTECTED>  (1069) 
TRUE

>  <SMILES>  (1069) 
N[C@@H](c1(cccs1))C(=O)O

>  <INCHIKEY>  (1069) 
XLMSKXASROPJNG-YFKPBYRVSA-N

$$$$
D-Tpi
     RDKit          2D

 16 18  0  0  0  0  0  0  0  0999 V2000
   -2.5143   -1.4629    0.0000 N   0  0  0  0  0  0  0  0  0  0  0  0
   -2.4824    0.0368    0.0000 C   0  0  0  0  0  0  0  0  0  0  0  0
   -1.1676    0.7589    0.0000 C   0  0  0  0  0  0  0  0  0  0  0  0
    0.1151   -0.0186    0.0000 C   0  0  0  0  0  0  0  0  0  0  0  0
    0.0831   -1.5183    0.0000 C   0  0  0  0  0  0  0  0  0  0  0  0
   -1.2316   -2.2404    0.0000 C   0  0  0  0  0  0  0  0  0  0  0  0
    1.4995   -2.0121    0.0000 N   0  0  0  0  0  0  0  0  0  0  0  0
    2.4069   -0.8176    0.0000 C   0  0  0  0  0  0  0  0  0  0  0  0
    3.9017   -0.6927    0.0000 C   0  0  0  0  0  0  0  0  0  0  0  0
    4.5408    0.6643    0.0000 C   0  0  0  0  0  0  0  0  0  0  0  0
    3.6852    1.8964    0.0000 C   0  0  0  0  0  0  0  0  0  0  0  0
    2.1904    1.7714    0.0000 C   0  0  0  0  0  0  0  0  0  0  0  0
    1.5513    0.4144    0.0000 C   0  0  0  0  0  0  0  0  0  0  0  0
   -3.7651    0.8143    0.0000 C   0  0  0  0  0  0  0  0  0  0  0  0
   -5.0799    0.0921    0.0000 O   0  0  0  0  0  0  0  0  0  0  0  0
   -3.7332    2.3139    0.0000 O   0  0  0  0  0  0  0  0  0  0  0  0
  1  2  1  0
  2  3  1  0
  3  4  1  0
  4  5  2  0
  5  6  1  0
  5  7  1  0
  7  8  1  0
  8  9  2  0
  9 10  1  0
 10 11  2  0
 11 12  1  0
 12 13  2  0
  2 14  1  1
 14 15  2  0
 14 16  1  0
  6  1  1  0
 13  4  1  0
 13  8  1  0
M  END
>  <rName>  (1070) 
D-Tpi

>  <PQ_SYMBOL>  (1070) 
D-Tpi

>  <FULL_NAME>  (1070) 
D-Tryptoline-3-carboxylic acid

>  <IUPAC_CONDENSED>  (1070) 
D-Tpi

>  <IUPAC>  (1070) 
(12R)-8,11-diazatricyclo[7.4.0.0^{2,7}]trideca-1(9),2,4,6-tetraene-12-carboxylic acid

>  <TYPE>  (1070) 
Backbone

>  <CLASS>  (1070) 
alpha

>  <ANALOG>  (1070) 
Pro

>  <MOL_WT>  (1070) 
216.24

>  <LOGP>  (1070) 
1.2668

>  <TPSA>  (1070) 
65.12

>  <POPULARITY>  (1070) 
12.4

>  <PROTECTED>  (1070) 
TRUE

>  <SMILES>  (1070) 
N1[C@H](Cc2(c(C1)[nH]c3(ccccc23)))C(=O)O

>  <INCHIKEY>  (1070) 
FSNCEEGOMTYXKY-SNVBAGLBSA-N

$$$$
Phe_4Ph_3OMe
     RDKit          2D

 20 21  0  0  0  0  0  0  0  0999 V2000
   -3.7279    1.8454    0.0000 N   0  0  0  0  0  0  0  0  0  0  0  0
   -4.4414    0.5260    0.0000 C   0  0  0  0  0  0  0  0  0  0  0  0
   -3.6555   -0.7517    0.0000 C   0  0  0  0  0  0  0  0  0  0  0  0
   -2.1561   -0.7099    0.0000 C   0  0  0  0  0  0  0  0  0  0  0  0
   -1.4425    0.6096    0.0000 C   0  0  0  0  0  0  0  0  0  0  0  0
    0.0569    0.6514    0.0000 C   0  0  0  0  0  0  0  0  0  0  0  0
    0.8428   -0.6263    0.0000 C   0  0  0  0  0  0  0  0  0  0  0  0
    0.1293   -1.9457    0.0000 C   0  0  0  0  0  0  0  0  0  0  0  0
   -1.3702   -1.9875    0.0000 C   0  0  0  0  0  0  0  0  0  0  0  0
    2.3422   -0.5845    0.0000 C   0  0  0  0  0  0  0  0  0  0  0  0
    3.1281   -1.8621    0.0000 C   0  0  0  0  0  0  0  0  0  0  0  0
    4.6275   -1.8203    0.0000 C   0  0  0  0  0  0  0  0  0  0  0  0
    5.3410   -0.5009    0.0000 C   0  0  0  0  0  0  0  0  0  0  0  0
    4.5551    0.7767    0.0000 C   0  0  0  0  0  0  0  0  0  0  0  0
    5.2686    2.0962    0.0000 O   0  0  0  0  0  0  0  0  0  0  0  0
    6.7681    2.1380    0.0000 C   0  0  0  0  0  0  0  0  0  0  0  0
    3.0557    0.7349    0.0000 C   0  0  0  0  0  0  0  0  0  0  0  0
   -5.9408    0.4842    0.0000 C   0  0  0  0  0  0  0  0  0  0  0  0
   -6.6543   -0.8353    0.0000 O   0  0  0  0  0  0  0  0  0  0  0  0
   -6.7267    1.7618    0.0000 O   0  0  0  0  0  0  0  0  0  0  0  0
  2  1  1  1
  2  3  1  0
  3  4  1  0
  4  5  1  0
  5  6  2  0
  6  7  1  0
  7  8  2  0
  8  9  1  0
  7 10  1  0
 10 11  2  0
 11 12  1  0
 12 13  2  0
 13 14  1  0
 14 15  1  0
 15 16  1  0
 14 17  2  0
  2 18  1  0
 18 19  2  0
 18 20  1  0
  9  4  2  0
 17 10  1  0
M  END
>  <rName>  (1071) 
Phe_4Ph_3OMe

>  <PQ_SYMBOL>  (1071) 
Phe_4Ph_3OMe

>  <FULL_NAME>  (1071) 
(2S)-2-amino-3-[4-(3-methoxyphenyl)phenyl]propanoic acid

>  <IUPAC_CONDENSED>  (1071) 
Phe(4-Ph(3-OMe))

>  <IUPAC>  (1071) 
(2S)-2-amino-3-(4-(3-methoxyphenyl)phenyl)propanoic acid

>  <TYPE>  (1071) 
Backbone

>  <CLASS>  (1071) 
alpha

>  <ANALOG>  (1071) 
Phe

>  <MOL_WT>  (1071) 
271.316

>  <LOGP>  (1071) 
2.3166

>  <TPSA>  (1071) 
72.55

>  <POPULARITY>  (1071) 
8.1

>  <PROTECTED>  (1071) 
TRUE

>  <SMILES>  (1071) 
N[C@@H](Cc1(ccc(cc1)c2(cccc(OC)c2)))C(=O)O

>  <INCHIKEY>  (1071) 
FREFJQVVDGOAQX-HNNXBMFYSA-N

$$$$
Nhexyl-G
     RDKit          2D

 11 10  0  0  0  0  0  0  0  0999 V2000
   -1.5414    0.1513    0.0000 N   0  0  0  0  0  0  0  0  0  0  0  0
   -0.2172   -0.5533    0.0000 C   0  0  0  0  0  0  0  0  0  0  0  0
    1.0551    0.2412    0.0000 C   0  0  0  0  0  0  0  0  0  0  0  0
    2.3793   -0.4635    0.0000 C   0  0  0  0  0  0  0  0  0  0  0  0
    3.6517    0.3310    0.0000 C   0  0  0  0  0  0  0  0  0  0  0  0
    4.9759   -0.3736    0.0000 C   0  0  0  0  0  0  0  0  0  0  0  0
    6.2482    0.4209    0.0000 C   0  0  0  0  0  0  0  0  0  0  0  0
   -2.8137   -0.6431    0.0000 C   0  0  0  0  0  0  0  0  0  0  0  0
   -4.1379    0.0615    0.0000 C   0  0  0  0  0  0  0  0  0  0  0  0
   -4.1898    1.5606    0.0000 O   0  0  0  0  0  0  0  0  0  0  0  0
   -5.4102   -0.7330    0.0000 O   0  0  0  0  0  0  0  0  0  0  0  0
  1  2  1  0
  2  3  1  0
  3  4  1  0
  4  5  1  0
  5  6  1  0
  6  7  1  0
  1  8  1  0
  8  9  1  0
  9 10  2  0
  9 11  1  0
M  END
>  <rName>  (1072) 
Nhexyl-G

>  <PQ_SYMBOL>  (1072) 
Nhexyl-G

>  <FULL_NAME>  (1072) 
2-(hexylamino)acetic acid

>  <IUPAC_CONDENSED>  (1072) 
hexyl-Gly

>  <IUPAC>  (1072) 
2-(hexylamino)acetic acid

>  <TYPE>  (1072) 
Backbone

>  <CLASS>  (1072) 
alpha

>  <ANALOG>  (1072) 
Gly

>  <MOL_WT>  (1072) 
159.229

>  <LOGP>  (1072) 
1.2409000000000001

>  <TPSA>  (1072) 
49.33

>  <POPULARITY>  (1072) 
19.6

>  <PROTECTED>  (1072) 
TRUE

>  <SMILES>  (1072) 
N(CCCCCC)CC(=O)O

>  <INCHIKEY>  (1072) 
DAQPDSNNUNDKNX-UHFFFAOYSA-N

$$$$
D-Phe_4OBn
     RDKit          2D

 20 21  0  0  0  0  0  0  0  0999 V2000
   -4.5045    1.7035    0.0000 N   0  0  0  0  0  0  0  0  0  0  0  0
   -4.9466    0.2701    0.0000 C   0  0  0  0  0  0  0  0  0  0  0  0
   -3.9264   -0.8295    0.0000 C   0  0  0  0  0  0  0  0  0  0  0  0
   -2.4640   -0.4957    0.0000 C   0  0  0  0  0  0  0  0  0  0  0  0
   -2.0218    0.9376    0.0000 C   0  0  0  0  0  0  0  0  0  0  0  0
   -0.5594    1.2714    0.0000 C   0  0  0  0  0  0  0  0  0  0  0  0
    0.4608    0.1718    0.0000 C   0  0  0  0  0  0  0  0  0  0  0  0
    1.9232    0.5056    0.0000 O   0  0  0  0  0  0  0  0  0  0  0  0
    2.9435   -0.5940    0.0000 C   0  0  0  0  0  0  0  0  0  0  0  0
    4.4059   -0.2603    0.0000 C   0  0  0  0  0  0  0  0  0  0  0  0
    5.4261   -1.3599    0.0000 C   0  0  0  0  0  0  0  0  0  0  0  0
    6.8885   -1.0261    0.0000 C   0  0  0  0  0  0  0  0  0  0  0  0
    7.3307    0.4072    0.0000 C   0  0  0  0  0  0  0  0  0  0  0  0
    6.3104    1.5068    0.0000 C   0  0  0  0  0  0  0  0  0  0  0  0
    4.8480    1.1731    0.0000 C   0  0  0  0  0  0  0  0  0  0  0  0
    0.0187   -1.2616    0.0000 C   0  0  0  0  0  0  0  0  0  0  0  0
   -1.4437   -1.5953    0.0000 C   0  0  0  0  0  0  0  0  0  0  0  0
   -6.4090   -0.0637    0.0000 C   0  0  0  0  0  0  0  0  0  0  0  0
   -6.8512   -1.4970    0.0000 O   0  0  0  0  0  0  0  0  0  0  0  0
   -7.4292    1.0359    0.0000 O   0  0  0  0  0  0  0  0  0  0  0  0
  2  1  1  6
  2  3  1  0
  3  4  1  0
  4  5  1  0
  5  6  2  0
  6  7  1  0
  7  8  1  0
  8  9  1  0
  9 10  1  0
 10 11  2  0
 11 12  1  0
 12 13  2  0
 13 14  1  0
 14 15  2  0
  7 16  2  0
 16 17  1  0
  2 18  1  0
 18 19  2  0
 18 20  1  0
 15 10  1  0
 17  4  2  0
M  END
>  <rName>  (1073) 
D-Phe_4OBn

>  <PQ_SYMBOL>  (1073) 
D-Phe_4OBn

>  <FULL_NAME>  (1073) 
O-Benzyl-D-tyrosine

>  <IUPAC_CONDENSED>  (1073) 
D-Tyr(Bn)

>  <IUPAC>  (1073) 
(2R)-2-amino-3-(4-benzyloxyphenyl)propanoic acid

>  <TYPE>  (1073) 
Backbone

>  <CLASS>  (1073) 
alpha

>  <ANALOG>  (1073) 
Tyr

>  <MOL_WT>  (1073) 
271.316

>  <LOGP>  (1073) 
2.22

>  <TPSA>  (1073) 
72.55

>  <POPULARITY>  (1073) 
14

>  <PROTECTED>  (1073) 
TRUE

>  <SMILES>  (1073) 
N[C@H](Cc2(ccc(OCc1(ccccc1))cc2))C(=O)O

>  <INCHIKEY>  (1073) 
KAFHLONDOVSENM-OAHLLOKOSA-N

$$$$
D-hCit
     RDKit          2D

 13 12  0  0  0  0  0  0  0  0999 V2000
   -2.9072    1.8790    0.0000 N   0  0  0  0  0  0  0  0  0  0  0  0
   -2.9824    0.3808    0.0000 C   0  0  0  0  0  0  0  0  0  0  0  0
   -1.7226   -0.4334    0.0000 C   0  0  0  0  0  0  0  0  0  0  0  0
   -0.3876    0.2505    0.0000 C   0  0  0  0  0  0  0  0  0  0  0  0
    0.8722   -0.5637    0.0000 C   0  0  0  0  0  0  0  0  0  0  0  0
    2.2072    0.1202    0.0000 C   0  0  0  0  0  0  0  0  0  0  0  0
    3.4670   -0.6940    0.0000 N   0  0  0  0  0  0  0  0  0  0  0  0
    4.8020   -0.0101    0.0000 C   0  0  0  0  0  0  0  0  0  0  0  0
    4.8772    1.4880    0.0000 O   0  0  0  0  0  0  0  0  0  0  0  0
    6.0618   -0.8243    0.0000 N   0  0  0  0  0  0  0  0  0  0  0  0
   -4.3175   -0.3030    0.0000 C   0  0  0  0  0  0  0  0  0  0  0  0
   -4.3927   -1.8012    0.0000 O   0  0  0  0  0  0  0  0  0  0  0  0
   -5.5772    0.5112    0.0000 O   0  0  0  0  0  0  0  0  0  0  0  0
  2  1  1  6
  2  3  1  0
  3  4  1  0
  4  5  1  0
  5  6  1  0
  6  7  1  0
  7  8  1  0
  8  9  2  0
  8 10  1  0
  2 11  1  0
 11 12  2  0
 11 13  1  0
M  END
>  <rName>  (1074) 
D-hCit

>  <PQ_SYMBOL>  (1074) 
D-hCit

>  <FULL_NAME>  (1074) 
(2R)-2-amino-6-(carbamoylamino)hexanoic acid

>  <IUPAC_CONDENSED>  (1074) 
D-hCit

>  <IUPAC>  (1074) 
(2R)-2-amino-6-(carbamoylamino)hexanoic acid

>  <TYPE>  (1074) 
Backbone

>  <CLASS>  (1074) 
alpha

>  <ANALOG>  (1074) 
Arg

>  <MOL_WT>  (1074) 
189.215

>  <LOGP>  (1074) 
-0.7630999999999994

>  <TPSA>  (1074) 
118.44000000000001

>  <POPULARITY>  (1074) 
11.7

>  <PROTECTED>  (1074) 
TRUE

>  <SMILES>  (1074) 
N[C@H](CCCCNC(=O)N)C(=O)O

>  <INCHIKEY>  (1074) 
XIGSAGMEBXLVJJ-RXMQYKEDSA-N

$$$$
Phg_4F
     RDKit          2D

 12 12  0  0  0  0  0  0  0  0999 V2000
   -2.1139   -2.0272    0.0000 N   0  0  0  0  0  0  0  0  0  0  0  0
   -1.6041   -0.6165    0.0000 C   0  0  0  0  0  0  0  0  0  0  0  0
   -0.1275   -0.3527    0.0000 C   0  0  0  0  0  0  0  0  0  0  0  0
    0.3824    1.0580    0.0000 C   0  0  0  0  0  0  0  0  0  0  0  0
    1.8590    1.3219    0.0000 C   0  0  0  0  0  0  0  0  0  0  0  0
    2.8258    0.1750    0.0000 C   0  0  0  0  0  0  0  0  0  0  0  0
    4.3024    0.4388    0.0000 F   0  0  0  0  0  0  0  0  0  0  0  0
    2.3159   -1.2357    0.0000 C   0  0  0  0  0  0  0  0  0  0  0  0
    0.8393   -1.4995    0.0000 C   0  0  0  0  0  0  0  0  0  0  0  0
   -2.5709    0.5304    0.0000 C   0  0  0  0  0  0  0  0  0  0  0  0
   -2.0610    1.9411    0.0000 O   0  0  0  0  0  0  0  0  0  0  0  0
   -4.0475    0.2665    0.0000 O   0  0  0  0  0  0  0  0  0  0  0  0
  2  1  1  6
  2  3  1  0
  3  4  1  0
  4  5  2  0
  5  6  1  0
  6  7  1  0
  6  8  2  0
  8  9  1  0
  2 10  1  0
 10 11  2  0
 10 12  1  0
  9  3  2  0
M  END
>  <rName>  (1075) 
Phg_4F

>  <PQ_SYMBOL>  (1075) 
Phg_4F

>  <FULL_NAME>  (1075) 
(2S)-2-amino-2-(4-fluorophenyl)acetic acid

>  <IUPAC_CONDENSED>  (1075) 
Phg(4-F)

>  <IUPAC>  (1075) 
(2S)-2-amino-2-(4-fluorophenyl)acetic acid

>  <TYPE>  (1075) 
Backbone

>  <CLASS>  (1075) 
alpha

>  <ANALOG>  (1075) 
X

>  <MOL_WT>  (1075) 
169.15499999999997

>  <LOGP>  (1075) 
0.9101000000000001

>  <TPSA>  (1075) 
63.32000000000001

>  <POPULARITY>  (1075) 
9.5

>  <PROTECTED>  (1075) 
TRUE

>  <SMILES>  (1075) 
N[C@@H](c1(ccc(F)cc1))C(=O)O

>  <INCHIKEY>  (1075) 
JKFYKCYQEWQPTM-ZETCQYMHSA-N

$$$$
NBn-A
     RDKit          2D

 13 13  0  0  0  0  0  0  0  0999 V2000
   -1.0194    0.9008    0.0000 N   0  0  0  0  0  0  0  0  0  0  0  0
   -0.1419   -0.3157    0.0000 C   0  0  0  0  0  0  0  0  0  0  0  0
    1.3504   -0.1640    0.0000 C   0  0  0  0  0  0  0  0  0  0  0  0
    1.9652    1.2042    0.0000 C   0  0  0  0  0  0  0  0  0  0  0  0
    3.4575    1.3560    0.0000 C   0  0  0  0  0  0  0  0  0  0  0  0
    4.3351    0.1395    0.0000 C   0  0  0  0  0  0  0  0  0  0  0  0
    3.7203   -1.2288    0.0000 C   0  0  0  0  0  0  0  0  0  0  0  0
    2.2280   -1.3805    0.0000 C   0  0  0  0  0  0  0  0  0  0  0  0
   -2.5117    0.7490    0.0000 C   0  0  0  0  0  0  0  0  0  0  0  0
   -3.3893    1.9655    0.0000 C   0  0  0  0  0  0  0  0  0  0  0  0
   -3.1265   -0.6192    0.0000 C   0  0  0  0  0  0  0  0  0  0  0  0
   -2.2489   -1.8357    0.0000 O   0  0  0  0  0  0  0  0  0  0  0  0
   -4.6188   -0.7710    0.0000 O   0  0  0  0  0  0  0  0  0  0  0  0
  1  2  1  0
  2  3  1  0
  3  4  2  0
  4  5  1  0
  5  6  2  0
  6  7  1  0
  7  8  2  0
  1  9  1  0
  9 10  1  6
  9 11  1  0
 11 12  2  0
 11 13  1  0
  8  3  1  0
M  END
>  <rName>  (1076) 
NBn-A

>  <PQ_SYMBOL>  (1076) 
NBn-A

>  <FULL_NAME>  (1076) 
(2S)-2-(benzylamino)propanoic acid

>  <IUPAC_CONDENSED>  (1076) 
Bn-Ala

>  <IUPAC>  (1076) 
(2S)-2-(benzylamino)propanoic acid

>  <TYPE>  (1076) 
Backbone

>  <CLASS>  (1076) 
alpha

>  <ANALOG>  (1076) 
Ala

>  <MOL_WT>  (1076) 
179.21899999999997

>  <LOGP>  (1076) 
1.2493

>  <TPSA>  (1076) 
49.33

>  <POPULARITY>  (1076) 
19.6

>  <PROTECTED>  (1076) 
TRUE

>  <SMILES>  (1076) 
N(Cc1(ccccc1))[C@@H](C)C(=O)O

>  <INCHIKEY>  (1076) 
RLIHXKPTGKETCC-QMMMGPOBSA-N

$$$$
EtOMe-D-Gly
     RDKit          2D

  9  9  0  0  0  0  0  0  0  0999 V2000
    0.4167   -1.2990    0.0000 N   0  0  0  0  0  0  0  0  0  0  0  0
   -0.3333    0.0000    0.0000 C   0  0  0  0  0  0  0  0  0  0  0  0
    0.4167    1.2990    0.0000 C   0  0  0  0  0  0  0  0  0  0  0  0
    1.9167    1.2990    0.0000 O   0  0  0  0  0  0  0  0  0  0  0  0
    2.6667    0.0000    0.0000 C   0  0  0  0  0  0  0  0  0  0  0  0
    1.9167   -1.2990    0.0000 C   0  0  0  0  0  0  0  0  0  0  0  0
   -1.8333   -0.0000    0.0000 C   0  0  0  0  0  0  0  0  0  0  0  0
   -2.5833   -1.2990    0.0000 O   0  0  0  0  0  0  0  0  0  0  0  0
   -2.5833    1.2990    0.0000 O   0  0  0  0  0  0  0  0  0  0  0  0
  1  2  1  0
  2  3  1  0
  3  4  1  0
  4  5  1  0
  5  6  1  0
  2  7  1  1
  7  8  2  0
  7  9  1  0
  6  1  1  0
M  END
>  <rName>  (1077) 
EtOMe-D-Gly

>  <PQ_SYMBOL>  (1077) 
EtOMe-D-Gly

>  <FULL_NAME>  (1077) 
(3R)-morpholine-3-carboxylic acid

>  <IUPAC_CONDENSED>  (1077) 
EtOMe-D-Gly

>  <IUPAC>  (1077) 
(3R)-morpholine-3-carboxylic acid

>  <TYPE>  (1077) 
Backbone

>  <CLASS>  (1077) 
alpha

>  <ANALOG>  (1077) 
Pro

>  <MOL_WT>  (1077) 
131.131

>  <LOGP>  (1077) 
-0.9406000000000001

>  <TPSA>  (1077) 
58.56

>  <POPULARITY>  (1077) 
12.3

>  <PROTECTED>  (1077) 
TRUE

>  <SMILES>  (1077) 
N1[C@H](COCC1)C(=O)O

>  <INCHIKEY>  (1077) 
JUNOWSHJELIDQP-SCSAIBSYSA-N

$$$$
NMe-D-Orn
     RDKit          2D

 10  9  0  0  0  0  0  0  0  0999 V2000
   -2.0182    1.4385    0.0000 N   0  0  0  0  0  0  0  0  0  0  0  0
   -3.4137    0.8883    0.0000 C   0  0  0  0  0  0  0  0  0  0  0  0
   -0.8441    0.5050    0.0000 C   0  0  0  0  0  0  0  0  0  0  0  0
    0.5514    1.0552    0.0000 C   0  0  0  0  0  0  0  0  0  0  0  0
    1.7256    0.1218    0.0000 C   0  0  0  0  0  0  0  0  0  0  0  0
    3.1211    0.6719    0.0000 C   0  0  0  0  0  0  0  0  0  0  0  0
    4.2952   -0.2615    0.0000 N   0  0  0  0  0  0  0  0  0  0  0  0
   -1.0653   -0.9785    0.0000 C   0  0  0  0  0  0  0  0  0  0  0  0
   -2.4608   -1.5287    0.0000 O   0  0  0  0  0  0  0  0  0  0  0  0
    0.1088   -1.9120    0.0000 O   0  0  0  0  0  0  0  0  0  0  0  0
  1  2  1  0
  1  3  1  0
  3  4  1  6
  4  5  1  0
  5  6  1  0
  6  7  1  0
  3  8  1  0
  8  9  2  0
  8 10  1  0
M  END
>  <rName>  (1078) 
NMe-D-Orn

>  <PQ_SYMBOL>  (1078) 
NMe-D-Orn

>  <FULL_NAME>  (1078) 
methyl D-ornithine

>  <IUPAC_CONDENSED>  (1078) 
Me-D-Orn

>  <IUPAC>  (1078) 
(2R)-5-amino-2-(methylamino)pentanoic acid

>  <TYPE>  (1078) 
Backbone

>  <CLASS>  (1078) 
alpha

>  <ANALOG>  (1078) 
Lys

>  <MOL_WT>  (1078) 
146.19000000000003

>  <LOGP>  (1078) 
-0.6020999999999996

>  <TPSA>  (1078) 
75.35

>  <POPULARITY>  (1078) 
14.8

>  <PROTECTED>  (1078) 
TRUE

>  <SMILES>  (1078) 
N(C)[C@H](CCCN)C(=O)O

>  <INCHIKEY>  (1078) 
OZRWQPFBXDVLAH-RXMQYKEDSA-N

$$$$
Tic_6OH
     RDKit          2D

 14 15  0  0  0  0  0  0  0  0999 V2000
   -1.7557   -1.4941    0.0000 N   0  0  0  0  0  0  0  0  0  0  0  0
   -1.9669   -0.0091    0.0000 C   0  0  0  0  0  0  0  0  0  0  0  0
   -0.7863    0.9163    0.0000 C   0  0  0  0  0  0  0  0  0  0  0  0
    0.6054    0.3566    0.0000 C   0  0  0  0  0  0  0  0  0  0  0  0
    1.7859    1.2820    0.0000 C   0  0  0  0  0  0  0  0  0  0  0  0
    3.1776    0.7223    0.0000 C   0  0  0  0  0  0  0  0  0  0  0  0
    4.3581    1.6476    0.0000 O   0  0  0  0  0  0  0  0  0  0  0  0
    3.3887   -0.7628    0.0000 C   0  0  0  0  0  0  0  0  0  0  0  0
    2.2081   -1.6882    0.0000 C   0  0  0  0  0  0  0  0  0  0  0  0
    0.8165   -1.1285    0.0000 C   0  0  0  0  0  0  0  0  0  0  0  0
   -0.3641   -2.0538    0.0000 C   0  0  0  0  0  0  0  0  0  0  0  0
   -3.3585    0.5507    0.0000 C   0  0  0  0  0  0  0  0  0  0  0  0
   -4.5391   -0.3747    0.0000 O   0  0  0  0  0  0  0  0  0  0  0  0
   -3.5696    2.0357    0.0000 O   0  0  0  0  0  0  0  0  0  0  0  0
  1  2  1  0
  2  3  1  0
  3  4  1  0
  4  5  1  0
  5  6  2  0
  6  7  1  0
  6  8  1  0
  8  9  2  0
  9 10  1  0
 10 11  1  0
  2 12  1  6
 12 13  2  0
 12 14  1  0
 10  4  2  0
 11  1  1  0
M  END
>  <rName>  (1079) 
Tic_6OH

>  <PQ_SYMBOL>  (1079) 
Tic_6OH

>  <FULL_NAME>  (1079) 
(3S)-6-hydroxy-1,2,3,4-tetrahydroisoquinoline-3-carboxylic acid

>  <IUPAC_CONDENSED>  (1079) 
Tic(6-OH)

>  <IUPAC>  (1079) 
(4S)-8-hydroxy-3-azabicyclo[4.4.0]deca-1(10),6,8-triene-4-carboxylic acid

>  <TYPE>  (1079) 
Backbone

>  <CLASS>  (1079) 
alpha

>  <ANALOG>  (1079) 
Pro

>  <MOL_WT>  (1079) 
193.20199999999994

>  <LOGP>  (1079) 
0.49109999999999987

>  <TPSA>  (1079) 
69.56

>  <POPULARITY>  (1079) 
15.2

>  <PROTECTED>  (1079) 
TRUE

>  <SMILES>  (1079) 
N2[C@@H](Cc1(cc(O)ccc1C2))C(=O)O

>  <INCHIKEY>  (1079) 
CRAGDYRHPWTZJL-VIFPVBQESA-N

$$$$
Orn_Me
     RDKit          2D

 10  9  0  0  0  0  0  0  0  0999 V2000
   -1.4166   -1.8843    0.0000 N   0  0  0  0  0  0  0  0  0  0  0  0
   -1.4265   -0.3844    0.0000 C   0  0  0  0  0  0  0  0  0  0  0  0
   -0.1324    0.3741    0.0000 C   0  0  0  0  0  0  0  0  0  0  0  0
    1.1716   -0.3673    0.0000 C   0  0  0  0  0  0  0  0  0  0  0  0
    2.4657    0.3912    0.0000 C   0  0  0  0  0  0  0  0  0  0  0  0
    3.7696   -0.3503    0.0000 N   0  0  0  0  0  0  0  0  0  0  0  0
    5.0637    0.4082    0.0000 C   0  0  0  0  0  0  0  0  0  0  0  0
   -2.7304    0.3571    0.0000 C   0  0  0  0  0  0  0  0  0  0  0  0
   -2.7402    1.8571    0.0000 O   0  0  0  0  0  0  0  0  0  0  0  0
   -4.0245   -0.4014    0.0000 O   0  0  0  0  0  0  0  0  0  0  0  0
  2  1  1  6
  2  3  1  0
  3  4  1  0
  4  5  1  0
  5  6  1  0
  6  7  1  0
  2  8  1  0
  8  9  2  0
  8 10  1  0
M  END
>  <rName>  (1080) 
Orn_Me

>  <PQ_SYMBOL>  (1080) 
Orn_Me

>  <FULL_NAME>  (1080) 
(2S)-2-amino-5-(methylamino)pentanoic acid

>  <IUPAC_CONDENSED>  (1080) 
Orn(Me)

>  <IUPAC>  (1080) 
(2S)-2-amino-5-(methylamino)pentanoic acid

>  <TYPE>  (1080) 
Backbone

>  <CLASS>  (1080) 
alpha

>  <ANALOG>  (1080) 
Lys

>  <MOL_WT>  (1080) 
146.19

>  <LOGP>  (1080) 
-0.6021000000000001

>  <TPSA>  (1080) 
75.35

>  <POPULARITY>  (1080) 
18.9

>  <PROTECTED>  (1080) 
TRUE

>  <SMILES>  (1080) 
N[C@@H](CCCNC)C(=O)O

>  <INCHIKEY>  (1080) 
HZVXTZMGAFEVFQ-YFKPBYRVSA-N

$$$$
Ser_OGly
     RDKit          2D

 11 10  0  0  0  0  0  0  0  0999 V2000
    4.8461    0.0297    0.0000 N   0  0  0  0  0  0  0  0  0  0  0  0
    3.5123    0.7160    0.0000 C   0  0  0  0  0  0  0  0  0  0  0  0
    2.2511   -0.0959    0.0000 C   0  0  0  0  0  0  0  0  0  0  0  0
    2.3235   -1.5941    0.0000 O   0  0  0  0  0  0  0  0  0  0  0  0
    0.9173    0.5905    0.0000 O   0  0  0  0  0  0  0  0  0  0  0  0
   -0.3440   -0.2214    0.0000 C   0  0  0  0  0  0  0  0  0  0  0  0
   -1.6777    0.4649    0.0000 C   0  0  0  0  0  0  0  0  0  0  0  0
   -1.7502    1.9632    0.0000 N   0  0  0  0  0  0  0  0  0  0  0  0
   -2.9390   -0.3470    0.0000 C   0  0  0  0  0  0  0  0  0  0  0  0
   -2.8665   -1.8452    0.0000 O   0  0  0  0  0  0  0  0  0  0  0  0
   -4.2728    0.3394    0.0000 O   0  0  0  0  0  0  0  0  0  0  0  0
  1  2  1  0
  2  3  1  0
  3  4  2  0
  3  5  1  0
  5  6  1  0
  6  7  1  0
  7  8  1  1
  7  9  1  0
  9 10  2  0
  9 11  1  0
M  END
>  <rName>  (1081) 
Ser_OGly

>  <PQ_SYMBOL>  (1081) 
Ser_OGly

>  <FULL_NAME>  (1081) 
(2S)-2-amino-3-(2-aminoacetyl)oxypropanoic acid

>  <IUPAC_CONDENSED>  (1081) 
Ser(O-Gly)

>  <IUPAC>  (1081) 
(2S)-2-amino-3-(aminomethylcarbonyloxy)propanoic acid

>  <TYPE>  (1081) 
Backbone

>  <CLASS>  (1081) 
alpha

>  <ANALOG>  (1081) 
X

>  <MOL_WT>  (1081) 
162.145

>  <LOGP>  (1081) 
-2.0997999999999992

>  <TPSA>  (1081) 
115.64

>  <POPULARITY>  (1081) 
14.4

>  <PROTECTED>  (1081) 
TRUE

>  <SMILES>  (1081) 
NCC(=O)OC[C@H](N)C(=O)O

>  <INCHIKEY>  (1081) 
UCCAORFDUCOVNR-VKHMYHEASA-N

$$$$
Phe_4di2chloroethylamino
     RDKit          2D

 19 19  0  0  0  0  0  0  0  0999 V2000
   -3.5895    1.7019    0.0000 N   0  0  0  0  0  0  0  0  0  0  0  0
   -4.1502    0.3106    0.0000 C   0  0  0  0  0  0  0  0  0  0  0  0
   -3.2257   -0.8706    0.0000 C   0  0  0  0  0  0  0  0  0  0  0  0
   -1.7404   -0.6605    0.0000 C   0  0  0  0  0  0  0  0  0  0  0  0
   -1.1798    0.7308    0.0000 C   0  0  0  0  0  0  0  0  0  0  0  0
    0.3054    0.9409    0.0000 C   0  0  0  0  0  0  0  0  0  0  0  0
    1.2300   -0.2403    0.0000 C   0  0  0  0  0  0  0  0  0  0  0  0
    0.6693   -1.6316    0.0000 C   0  0  0  0  0  0  0  0  0  0  0  0
   -0.8159   -1.8417    0.0000 C   0  0  0  0  0  0  0  0  0  0  0  0
    2.7152   -0.0302    0.0000 N   0  0  0  0  0  0  0  0  0  0  0  0
    3.6398   -1.2114    0.0000 C   0  0  0  0  0  0  0  0  0  0  0  0
    5.1250   -1.0014    0.0000 C   0  0  0  0  0  0  0  0  0  0  0  0
    6.0495   -2.1825    0.0000 Cl  0  0  0  0  0  0  0  0  0  0  0  0
    3.2759    1.3610    0.0000 C   0  0  0  0  0  0  0  0  0  0  0  0
    4.7611    1.5711    0.0000 C   0  0  0  0  0  0  0  0  0  0  0  0
    5.3218    2.9624    0.0000 Cl  0  0  0  0  0  0  0  0  0  0  0  0
   -5.6354    0.1005    0.0000 C   0  0  0  0  0  0  0  0  0  0  0  0
   -6.1961   -1.2907    0.0000 O   0  0  0  0  0  0  0  0  0  0  0  0
   -6.5600    1.2817    0.0000 O   0  0  0  0  0  0  0  0  0  0  0  0
  2  1  1  1
  2  3  1  0
  3  4  1  0
  4  5  1  0
  5  6  2  0
  6  7  1  0
  7  8  2  0
  8  9  1  0
  7 10  1  0
 10 11  1  0
 11 12  1  0
 12 13  1  0
 10 14  1  0
 14 15  1  0
 15 16  1  0
  2 17  1  0
 17 18  2  0
 17 19  1  0
  9  4  2  0
M  END
>  <rName>  (1082) 
Phe_4di2chloroethylamino

>  <PQ_SYMBOL>  (1082) 
Phe_4di2chloroethylamino

>  <FULL_NAME>  (1082) 
Melphalan

>  <IUPAC_CONDENSED>  (1082) 
Phe(4-di(2-chloroethyl)amino)

>  <IUPAC>  (1082) 
(2S)-2-amino-3-(4-(bis(2-chloroethyl)amino)phenyl)propanoic acid

>  <TYPE>  (1082) 
Backbone

>  <CLASS>  (1082) 
alpha

>  <ANALOG>  (1082) 
Phe

>  <MOL_WT>  (1082) 
305.2049999999999

>  <LOGP>  (1082) 
1.925

>  <TPSA>  (1082) 
66.56

>  <POPULARITY>  (1082) 
13.5

>  <PROTECTED>  (1082) 
TRUE

>  <SMILES>  (1082) 
N[C@@H](Cc1(ccc(cc1)N(CCCl)CCCl))C(=O)O

>  <INCHIKEY>  (1082) 
SGDBTWWWUNNDEQ-LBPRGKRZSA-N

$$$$
Phe_2I
     RDKit          2D

 13 13  0  0  0  0  0  0  0  0999 V2000
   -1.4864    1.8099    0.0000 N   0  0  0  0  0  0  0  0  0  0  0  0
   -1.7669    0.3364    0.0000 C   0  0  0  0  0  0  0  0  0  0  0  0
   -0.6311   -0.6433    0.0000 C   0  0  0  0  0  0  0  0  0  0  0  0
    0.7853   -0.1495    0.0000 C   0  0  0  0  0  0  0  0  0  0  0  0
    1.0658    1.3241    0.0000 C   0  0  0  0  0  0  0  0  0  0  0  0
    2.4822    1.8179    0.0000 C   0  0  0  0  0  0  0  0  0  0  0  0
    3.6181    0.8382    0.0000 C   0  0  0  0  0  0  0  0  0  0  0  0
    3.3376   -0.6353    0.0000 C   0  0  0  0  0  0  0  0  0  0  0  0
    1.9212   -1.1292    0.0000 C   0  0  0  0  0  0  0  0  0  0  0  0
    1.6407   -2.6027    0.0000 I   0  0  0  0  0  0  0  0  0  0  0  0
   -3.1833   -0.1575    0.0000 C   0  0  0  0  0  0  0  0  0  0  0  0
   -3.4638   -1.6310    0.0000 O   0  0  0  0  0  0  0  0  0  0  0  0
   -4.3192    0.8222    0.0000 O   0  0  0  0  0  0  0  0  0  0  0  0
  2  1  1  1
  2  3  1  0
  3  4  1  0
  4  5  2  0
  5  6  1  0
  6  7  2  0
  7  8  1  0
  8  9  2  0
  9 10  1  0
  2 11  1  0
 11 12  2  0
 11 13  1  0
  9  4  1  0
M  END
>  <rName>  (1083) 
Phe_2I

>  <PQ_SYMBOL>  (1083) 
Phe_2I

>  <FULL_NAME>  (1083) 
m-Iodophenylalanine

>  <IUPAC_CONDENSED>  (1083) 
Phe(2-I)

>  <IUPAC>  (1083) 
(2S)-2-amino-3-(2-iodophenyl)propanoic acid

>  <TYPE>  (1083) 
Backbone

>  <CLASS>  (1083) 
alpha

>  <ANALOG>  (1083) 
Phe

>  <MOL_WT>  (1083) 
291.088

>  <LOGP>  (1083) 
1.2456000000000003

>  <TPSA>  (1083) 
63.32000000000001

>  <POPULARITY>  (1083) 
7.4

>  <PROTECTED>  (1083) 
TRUE

>  <SMILES>  (1083) 
N[C@@H](Cc1(ccccc1I))C(=O)O

>  <INCHIKEY>  (1083) 
BKXVGLPBXYBDDM-QMMMGPOBSA-N

$$$$
Tyr_CHCO2H2
     RDKit          2D

 20 20  0  0  0  0  0  0  0  0999 V2000
   -4.0326    1.7102    0.0000 N   0  0  0  0  0  0  0  0  0  0  0  0
   -4.3220    0.2384    0.0000 C   0  0  0  0  0  0  0  0  0  0  0  0
   -3.1921   -0.7481    0.0000 C   0  0  0  0  0  0  0  0  0  0  0  0
   -1.7728   -0.2629    0.0000 C   0  0  0  0  0  0  0  0  0  0  0  0
   -1.4834    1.2089    0.0000 C   0  0  0  0  0  0  0  0  0  0  0  0
   -0.0640    1.6942    0.0000 C   0  0  0  0  0  0  0  0  0  0  0  0
    1.0659    0.7076    0.0000 C   0  0  0  0  0  0  0  0  0  0  0  0
    2.4852    1.1929    0.0000 O   0  0  0  0  0  0  0  0  0  0  0  0
    3.6151    0.2063    0.0000 C   0  0  0  0  0  0  0  0  0  0  0  0
    5.0345    0.6916    0.0000 C   0  0  0  0  0  0  0  0  0  0  0  0
    5.3239    2.1634    0.0000 O   0  0  0  0  0  0  0  0  0  0  0  0
    6.1644   -0.2950    0.0000 O   0  0  0  0  0  0  0  0  0  0  0  0
    3.3257   -1.2655    0.0000 C   0  0  0  0  0  0  0  0  0  0  0  0
    1.9064   -1.7507    0.0000 O   0  0  0  0  0  0  0  0  0  0  0  0
    4.4556   -2.2520    0.0000 O   0  0  0  0  0  0  0  0  0  0  0  0
    0.7765   -0.7642    0.0000 C   0  0  0  0  0  0  0  0  0  0  0  0
   -0.6429   -1.2494    0.0000 C   0  0  0  0  0  0  0  0  0  0  0  0
   -5.7414   -0.2468    0.0000 C   0  0  0  0  0  0  0  0  0  0  0  0
   -6.0308   -1.7187    0.0000 O   0  0  0  0  0  0  0  0  0  0  0  0
   -6.8713    0.7397    0.0000 O   0  0  0  0  0  0  0  0  0  0  0  0
  2  1  1  1
  2  3  1  0
  3  4  1  0
  4  5  1  0
  5  6  2  0
  6  7  1  0
  7  8  1  0
  8  9  1  0
  9 10  1  0
 10 11  2  0
 10 12  1  0
  9 13  1  0
 13 14  2  0
 13 15  1  0
  7 16  2  0
 16 17  1  0
  2 18  1  0
 18 19  2  0
 18 20  1  0
 17  4  2  0
M  END
>  <rName>  (1084) 
Tyr_CHCO2H2

>  <PQ_SYMBOL>  (1084) 
Tyr_CHCO2H2

>  <FULL_NAME>  (1084) 
2-[4-[(2S)-2-amino-2-carboxyethyl]phenoxy]propanedioic acid

>  <IUPAC_CONDENSED>  (1084) 
Tyr(CH(CO2H)2)

>  <IUPAC>  (1084) 
2-((4-((2S)-2-amino-3-hydroxy-3-oxopropyl)phenyl)oxy)malonic acid

>  <TYPE>  (1084) 
Backbone

>  <CLASS>  (1084) 
alpha

>  <ANALOG>  (1084) 
Tyr

>  <MOL_WT>  (1084) 
283.236

>  <LOGP>  (1084) 
-0.44239999999999974

>  <TPSA>  (1084) 
147.15

>  <POPULARITY>  (1084) 
11

>  <PROTECTED>  (1084) 
TRUE

>  <SMILES>  (1084) 
N[C@@H](Cc1(ccc(OC(C(=O)O)C(=O)O)cc1))C(=O)O

>  <INCHIKEY>  (1084) 
SZIGXRNNKJDSAT-QMMMGPOBSA-N

$$$$
Tyr_3Cl
     RDKit          2D

 14 14  0  0  0  0  0  0  0  0999 V2000
   -2.0094    1.6916    0.0000 N   0  0  0  0  0  0  0  0  0  0  0  0
   -2.3243    0.2250    0.0000 C   0  0  0  0  0  0  0  0  0  0  0  0
   -1.2116   -0.7809    0.0000 C   0  0  0  0  0  0  0  0  0  0  0  0
    0.2159   -0.3203    0.0000 C   0  0  0  0  0  0  0  0  0  0  0  0
    0.5308    1.1463    0.0000 C   0  0  0  0  0  0  0  0  0  0  0  0
    1.9583    1.6069    0.0000 C   0  0  0  0  0  0  0  0  0  0  0  0
    3.0710    0.6009    0.0000 C   0  0  0  0  0  0  0  0  0  0  0  0
    4.4985    1.0615    0.0000 O   0  0  0  0  0  0  0  0  0  0  0  0
    2.7561   -0.8657    0.0000 C   0  0  0  0  0  0  0  0  0  0  0  0
    3.8688   -1.8716    0.0000 Cl  0  0  0  0  0  0  0  0  0  0  0  0
    1.3286   -1.3263    0.0000 C   0  0  0  0  0  0  0  0  0  0  0  0
   -3.7518   -0.2356    0.0000 C   0  0  0  0  0  0  0  0  0  0  0  0
   -4.0666   -1.7022    0.0000 O   0  0  0  0  0  0  0  0  0  0  0  0
   -4.8644    0.7704    0.0000 O   0  0  0  0  0  0  0  0  0  0  0  0
  2  1  1  1
  2  3  1  0
  3  4  1  0
  4  5  1  0
  5  6  2  0
  6  7  1  0
  7  8  1  0
  7  9  2  0
  9 10  1  0
  9 11  1  0
  2 12  1  0
 12 13  2  0
 12 14  1  0
 11  4  2  0
M  END
>  <rName>  (1085) 
Tyr_3Cl

>  <PQ_SYMBOL>  (1085) 
Tyr_3Cl

>  <FULL_NAME>  (1085) 
(2S)-2-amino-3-(3-chloro-4-hydroxyphenyl)propanoic acid

>  <IUPAC_CONDENSED>  (1085) 
Tyr(3-Cl)

>  <IUPAC>  (1085) 
(2S)-2-amino-3-(3-chloro-4-hydroxyphenyl)propanoic acid

>  <TYPE>  (1085) 
Backbone

>  <CLASS>  (1085) 
alpha

>  <ANALOG>  (1085) 
Tyr

>  <MOL_WT>  (1085) 
215.63599999999997

>  <LOGP>  (1085) 
1

>  <TPSA>  (1085) 
83.55

>  <POPULARITY>  (1085) 
24

>  <PROTECTED>  (1085) 
TRUE

>  <SMILES>  (1085) 
N[C@@H](Cc1(ccc(O)c(Cl)c1))C(=O)O

>  <INCHIKEY>  (1085) 
ACWBBAGYTKWBCD-ZETCQYMHSA-N

$$$$
Glu_OBn
     RDKit          2D

 17 17  0  0  0  0  0  0  0  0999 V2000
   -4.0665    2.0731    0.0000 N   0  0  0  0  0  0  0  0  0  0  0  0
   -4.2402    0.5832    0.0000 C   0  0  0  0  0  0  0  0  0  0  0  0
   -3.0367   -0.3122    0.0000 C   0  0  0  0  0  0  0  0  0  0  0  0
   -1.6596    0.2823    0.0000 C   0  0  0  0  0  0  0  0  0  0  0  0
   -0.4561   -0.6131    0.0000 C   0  0  0  0  0  0  0  0  0  0  0  0
   -0.6299   -2.1030    0.0000 O   0  0  0  0  0  0  0  0  0  0  0  0
    0.9210   -0.0186    0.0000 O   0  0  0  0  0  0  0  0  0  0  0  0
    2.1245   -0.9140    0.0000 C   0  0  0  0  0  0  0  0  0  0  0  0
    3.5016   -0.3194    0.0000 C   0  0  0  0  0  0  0  0  0  0  0  0
    3.6753    1.1705    0.0000 C   0  0  0  0  0  0  0  0  0  0  0  0
    5.0525    1.7650    0.0000 C   0  0  0  0  0  0  0  0  0  0  0  0
    6.2559    0.8696    0.0000 C   0  0  0  0  0  0  0  0  0  0  0  0
    6.0822   -0.6203    0.0000 C   0  0  0  0  0  0  0  0  0  0  0  0
    4.7050   -1.2148    0.0000 C   0  0  0  0  0  0  0  0  0  0  0  0
   -5.6173   -0.0113    0.0000 C   0  0  0  0  0  0  0  0  0  0  0  0
   -5.7910   -1.5012    0.0000 O   0  0  0  0  0  0  0  0  0  0  0  0
   -6.8208    0.8841    0.0000 O   0  0  0  0  0  0  0  0  0  0  0  0
  2  1  1  1
  2  3  1  0
  3  4  1  0
  4  5  1  0
  5  6  2  0
  5  7  1  0
  7  8  1  0
  8  9  1  0
  9 10  2  0
 10 11  1  0
 11 12  2  0
 12 13  1  0
 13 14  2  0
  2 15  1  0
 15 16  2  0
 15 17  1  0
 14  9  1  0
M  END
>  <rName>  (1086) 
Glu_OBn

>  <PQ_SYMBOL>  (1086) 
Glu_OBn

>  <FULL_NAME>  (1086) 
L-Glutamic acid gamma-benzyl ester

>  <IUPAC_CONDENSED>  (1086) 
Glu(OBn)

>  <IUPAC>  (1086) 
(2S)-2-amino-4-(benzyloxycarbonyl)butanoic acid

>  <TYPE>  (1086) 
Backbone

>  <CLASS>  (1086) 
alpha

>  <ANALOG>  (1086) 
Glu

>  <MOL_WT>  (1086) 
237.25500000000002

>  <LOGP>  (1086) 
0.9218999999999999

>  <TPSA>  (1086) 
89.62000000000002

>  <POPULARITY>  (1086) 
11.2

>  <PROTECTED>  (1086) 
TRUE

>  <SMILES>  (1086) 
N[C@@H](CCC(=O)OCc1(ccccc1))C(=O)O

>  <INCHIKEY>  (1086) 
BGGHCRNCRWQABU-JTQLQIEISA-N

$$$$
D-Phe_34diOMe
     RDKit          2D

 16 16  0  0  0  0  0  0  0  0999 V2000
   -2.7122    1.7058    0.0000 N   0  0  0  0  0  0  0  0  0  0  0  0
   -2.9205    0.2203    0.0000 C   0  0  0  0  0  0  0  0  0  0  0  0
   -1.7383   -0.7029    0.0000 C   0  0  0  0  0  0  0  0  0  0  0  0
   -0.3477   -0.1406    0.0000 C   0  0  0  0  0  0  0  0  0  0  0  0
   -0.1393    1.3449    0.0000 C   0  0  0  0  0  0  0  0  0  0  0  0
    1.2513    1.9072    0.0000 C   0  0  0  0  0  0  0  0  0  0  0  0
    2.4336    0.9840    0.0000 C   0  0  0  0  0  0  0  0  0  0  0  0
    3.8242    1.5463    0.0000 O   0  0  0  0  0  0  0  0  0  0  0  0
    5.0065    0.6231    0.0000 C   0  0  0  0  0  0  0  0  0  0  0  0
    2.2252   -0.5015    0.0000 C   0  0  0  0  0  0  0  0  0  0  0  0
    3.4075   -1.4246    0.0000 O   0  0  0  0  0  0  0  0  0  0  0  0
    3.1991   -2.9101    0.0000 C   0  0  0  0  0  0  0  0  0  0  0  0
    0.8346   -1.0637    0.0000 C   0  0  0  0  0  0  0  0  0  0  0  0
   -4.3112   -0.3420    0.0000 C   0  0  0  0  0  0  0  0  0  0  0  0
   -4.5195   -1.8274    0.0000 O   0  0  0  0  0  0  0  0  0  0  0  0
   -5.4934    0.5812    0.0000 O   0  0  0  0  0  0  0  0  0  0  0  0
  2  1  1  6
  2  3  1  0
  3  4  1  0
  4  5  1  0
  5  6  2  0
  6  7  1  0
  7  8  1  0
  8  9  1  0
  7 10  2  0
 10 11  1  0
 11 12  1  0
 10 13  1  0
  2 14  1  0
 14 15  2  0
 14 16  1  0
 13  4  2  0
M  END
>  <rName>  (1087) 
D-Phe_34diOMe

>  <PQ_SYMBOL>  (1087) 
D-Phe_34diOMe

>  <FULL_NAME>  (1087) 
(2R)-2-amino-3-(3,4-dimethoxyphenyl)propanoic acid

>  <IUPAC_CONDENSED>  (1087) 
D-Phe(3,4-diOMe)

>  <IUPAC>  (1087) 
(2R)-2-amino-3-(3,4-dimethoxyphenyl)propanoic acid

>  <TYPE>  (1087) 
Backbone

>  <CLASS>  (1087) 
alpha

>  <ANALOG>  (1087) 
Tyr

>  <MOL_WT>  (1087) 
225.24399999999997

>  <LOGP>  (1087) 
0.6581999999999999

>  <TPSA>  (1087) 
81.78

>  <POPULARITY>  (1087) 
10.5

>  <PROTECTED>  (1087) 
TRUE

>  <SMILES>  (1087) 
N[C@H](Cc1(ccc(OC)c(OC)c1))C(=O)O

>  <INCHIKEY>  (1087) 
VWTFNYVAFGYEKI-MRVPVSSYSA-N

$$$$
D-Trp_5F
     RDKit          2D

 16 17  0  0  0  0  0  0  0  0999 V2000
   -3.0564   -1.5854    0.0000 N   0  0  0  0  0  0  0  0  0  0  0  0
   -2.8364   -0.1016    0.0000 C   0  0  0  0  0  0  0  0  0  0  0  0
   -1.4415    0.4499    0.0000 C   0  0  0  0  0  0  0  0  0  0  0  0
   -0.2664   -0.4825    0.0000 C   0  0  0  0  0  0  0  0  0  0  0  0
   -0.3301   -1.9811    0.0000 C   0  0  0  0  0  0  0  0  0  0  0  0
    1.0756   -2.5048    0.0000 N   0  0  0  0  0  0  0  0  0  0  0  0
    2.0079   -1.3297    0.0000 C   0  0  0  0  0  0  0  0  0  0  0  0
    3.5050   -1.2364    0.0000 C   0  0  0  0  0  0  0  0  0  0  0  0
    4.1727    0.1068    0.0000 C   0  0  0  0  0  0  0  0  0  0  0  0
    3.3433    1.3567    0.0000 C   0  0  0  0  0  0  0  0  0  0  0  0
    4.0110    2.6999    0.0000 F   0  0  0  0  0  0  0  0  0  0  0  0
    1.8462    1.2633    0.0000 C   0  0  0  0  0  0  0  0  0  0  0  0
    1.1785   -0.0799    0.0000 C   0  0  0  0  0  0  0  0  0  0  0  0
   -4.0115    0.8308    0.0000 C   0  0  0  0  0  0  0  0  0  0  0  0
   -3.7915    2.3146    0.0000 O   0  0  0  0  0  0  0  0  0  0  0  0
   -5.4064    0.2794    0.0000 O   0  0  0  0  0  0  0  0  0  0  0  0
  2  1  1  1
  2  3  1  0
  3  4  1  0
  4  5  2  0
  5  6  1  0
  6  7  1  0
  7  8  1  0
  8  9  2  0
  9 10  1  0
 10 11  1  0
 10 12  2  0
 12 13  1  0
  2 14  1  0
 14 15  2  0
 14 16  1  0
 13  4  1  0
 13  7  2  0
M  END
>  <rName>  (1088) 
D-Trp_5F

>  <PQ_SYMBOL>  (1088) 
D-Trp_5F

>  <FULL_NAME>  (1088) 
(2R)-2-amino-3-(5-fluoro-1H-indol-3-yl)propanoic acid

>  <IUPAC_CONDENSED>  (1088) 
D-Trp(5-F)

>  <IUPAC>  (1088) 
(2R)-2-amino-3-(5-fluoro-1H-indol-3-yl)propanoic acid

>  <TYPE>  (1088) 
Backbone

>  <CLASS>  (1088) 
alpha

>  <ANALOG>  (1088) 
Trp

>  <MOL_WT>  (1088) 
222.21899999999997

>  <LOGP>  (1088) 
1.2614000000000003

>  <TPSA>  (1088) 
79.11

>  <POPULARITY>  (1088) 
9.5

>  <PROTECTED>  (1088) 
TRUE

>  <SMILES>  (1088) 
N[C@H](Cc1(c[nH]c2(ccc(F)cc12)))C(=O)O

>  <INCHIKEY>  (1088) 
INPQIVHQSQUEAJ-SECBINFHSA-N

$$$$
THIQ1R-1-CO2H
     RDKit          2D

 13 14  0  0  0  0  0  0  0  0999 V2000
   -1.5843    1.6659    0.0000 N   0  0  0  0  0  0  0  0  0  0  0  0
   -1.1961    0.2170    0.0000 C   0  0  0  0  0  0  0  0  0  0  0  0
    0.2528   -0.1712    0.0000 C   0  0  0  0  0  0  0  0  0  0  0  0
    0.6410   -1.6201    0.0000 C   0  0  0  0  0  0  0  0  0  0  0  0
    2.0899   -2.0083    0.0000 C   0  0  0  0  0  0  0  0  0  0  0  0
    3.1505   -0.9476    0.0000 C   0  0  0  0  0  0  0  0  0  0  0  0
    2.7623    0.5013    0.0000 C   0  0  0  0  0  0  0  0  0  0  0  0
    1.3134    0.8895    0.0000 C   0  0  0  0  0  0  0  0  0  0  0  0
    0.9252    2.3384    0.0000 C   0  0  0  0  0  0  0  0  0  0  0  0
   -0.5237    2.7266    0.0000 C   0  0  0  0  0  0  0  0  0  0  0  0
   -2.2568   -0.8436    0.0000 C   0  0  0  0  0  0  0  0  0  0  0  0
   -1.8686   -2.2925    0.0000 O   0  0  0  0  0  0  0  0  0  0  0  0
   -3.7057   -0.4554    0.0000 O   0  0  0  0  0  0  0  0  0  0  0  0
  1  2  1  0
  2  3  1  0
  3  4  2  0
  4  5  1  0
  5  6  2  0
  6  7  1  0
  7  8  2  0
  8  9  1  0
  9 10  1  0
  2 11  1  6
 11 12  2  0
 11 13  1  0
  8  3  1  0
 10  1  1  0
M  END
>  <rName>  (1089) 
THIQ1R-1-CO2H

>  <PQ_SYMBOL>  (1089) 
THIQ1R-1-CO2H

>  <FULL_NAME>  (1089) 
(1R)-1,2,3,4-tetrahydroisoquinoline-1-carboxylic acid

>  <IUPAC_CONDENSED>  (1089) 
THIQ(1R)-1-CO2H

>  <IUPAC>  (1089) 
(2R)-3-azabicyclo[4.4.0]deca-1(10),6,8-triene-2-carboxylic acid

>  <TYPE>  (1089) 
Backbone

>  <CLASS>  (1089) 
alpha

>  <ANALOG>  (1089) 
Pro

>  <MOL_WT>  (1089) 
177.20299999999997

>  <LOGP>  (1089) 
0.958

>  <TPSA>  (1089) 
49.33

>  <POPULARITY>  (1089) 
12.7

>  <PROTECTED>  (1089) 
TRUE

>  <SMILES>  (1089) 
N2[C@H](c1(ccccc1CC2))C(=O)O

>  <INCHIKEY>  (1089) 
OXFGRWIKQDSSLY-SECBINFHSA-N

$$$$
D-Nle_vinyl
     RDKit          2D

 11 10  0  0  0  0  0  0  0  0999 V2000
    1.9630   -1.8884    0.0000 N   0  0  0  0  0  0  0  0  0  0  0  0
    1.9989   -0.3888    0.0000 C   0  0  0  0  0  0  0  0  0  0  0  0
    0.7181    0.3920    0.0000 C   0  0  0  0  0  0  0  0  0  0  0  0
   -0.5985   -0.3267    0.0000 C   0  0  0  0  0  0  0  0  0  0  0  0
   -1.8792    0.4541    0.0000 C   0  0  0  0  0  0  0  0  0  0  0  0
   -3.1958   -0.2646    0.0000 C   0  0  0  0  0  0  0  0  0  0  0  0
   -4.4765    0.5162    0.0000 C   0  0  0  0  0  0  0  0  0  0  0  0
   -5.7931   -0.2025    0.0000 C   0  0  0  0  0  0  0  0  0  0  0  0
    3.3155    0.3299    0.0000 C   0  0  0  0  0  0  0  0  0  0  0  0
    3.3513    1.8295    0.0000 O   0  0  0  0  0  0  0  0  0  0  0  0
    4.5962   -0.4509    0.0000 O   0  0  0  0  0  0  0  0  0  0  0  0
  2  1  1  6
  2  3  1  0
  3  4  1  0
  4  5  1  0
  5  6  1  0
  6  7  1  0
  7  8  2  0
  2  9  1  0
  9 10  2  0
  9 11  1  0
M  END
>  <rName>  (1090) 
D-Nle_vinyl

>  <PQ_SYMBOL>  (1090) 
D-Nle_vinyl

>  <FULL_NAME>  (1090) 
(2R)-2-aminooct-7-enoic acid

>  <IUPAC_CONDENSED>  (1090) 
D-Nle(vinyl)

>  <IUPAC>  (1090) 
(2R)-2-aminooct-7-enoic acid

>  <TYPE>  (1090) 
Backbone

>  <CLASS>  (1090) 
alpha

>  <ANALOG>  (1090) 
Leu

>  <MOL_WT>  (1090) 
157.213

>  <LOGP>  (1090) 
1.1446999999999998

>  <TPSA>  (1090) 
63.32000000000001

>  <POPULARITY>  (1090) 
14.3

>  <PROTECTED>  (1090) 
TRUE

>  <SMILES>  (1090) 
N[C@H](CCCCC=C)C(=O)O

>  <INCHIKEY>  (1090) 
VXVRWMRIUKRFMP-SSDOTTSWSA-N

$$$$
Phe_NHMe
     RDKit          2D

 14 14  0  0  0  0  0  0  0  0999 V2000
   -2.0397    1.6757    0.0000 N   0  0  0  0  0  0  0  0  0  0  0  0
   -2.4395    0.2299    0.0000 C   0  0  0  0  0  0  0  0  0  0  0  0
   -1.3873   -0.8392    0.0000 C   0  0  0  0  0  0  0  0  0  0  0  0
    0.0646   -0.4625    0.0000 C   0  0  0  0  0  0  0  0  0  0  0  0
    0.4644    0.9832    0.0000 C   0  0  0  0  0  0  0  0  0  0  0  0
    1.9164    1.3598    0.0000 C   0  0  0  0  0  0  0  0  0  0  0  0
    2.9685    0.2907    0.0000 C   0  0  0  0  0  0  0  0  0  0  0  0
    2.5687   -1.1550    0.0000 C   0  0  0  0  0  0  0  0  0  0  0  0
    1.1168   -1.5316    0.0000 C   0  0  0  0  0  0  0  0  0  0  0  0
    4.4205    0.6674    0.0000 N   0  0  0  0  0  0  0  0  0  0  0  0
    5.4726   -0.4017    0.0000 C   0  0  0  0  0  0  0  0  0  0  0  0
   -3.8914   -0.1467    0.0000 C   0  0  0  0  0  0  0  0  0  0  0  0
   -4.2912   -1.5924    0.0000 O   0  0  0  0  0  0  0  0  0  0  0  0
   -4.9436    0.9224    0.0000 O   0  0  0  0  0  0  0  0  0  0  0  0
  2  1  1  1
  2  3  1  0
  3  4  1  0
  4  5  1  0
  5  6  2  0
  6  7  1  0
  7  8  2  0
  8  9  1  0
  7 10  1  0
 10 11  1  0
  2 12  1  0
 12 13  2  0
 12 14  1  0
  9  4  2  0
M  END
>  <rName>  (1091) 
Phe_NHMe

>  <PQ_SYMBOL>  (1091) 
Phe_NHMe

>  <FULL_NAME>  (1091) 
(2S)-2-amino-3-[4-(methylamino)phenyl]propanoic acid

>  <IUPAC_CONDENSED>  (1091) 
Phe(NHMe)

>  <IUPAC>  (1091) 
(2S)-2-amino-3-(4-(methylamino)phenyl)propanoic acid

>  <TYPE>  (1091) 
Backbone

>  <CLASS>  (1091) 
alpha

>  <ANALOG>  (1091) 
Phe

>  <MOL_WT>  (1091) 
194.23399999999995

>  <LOGP>  (1091) 
0.6826999999999996

>  <TPSA>  (1091) 
75.35

>  <POPULARITY>  (1091) 
14.2

>  <PROTECTED>  (1091) 
TRUE

>  <SMILES>  (1091) 
N[C@@H](Cc1(ccc(cc1)NC))C(=O)O

>  <INCHIKEY>  (1091) 
XWDFHSRKLQGCDB-VIFPVBQESA-N

$$$$
Abu_CN
     RDKit          2D

  9  8  0  0  0  0  0  0  0  0999 V2000
    1.0341   -1.9185    0.0000 N   0  0  0  0  0  0  0  0  0  0  0  0
    0.9057   -0.4240    0.0000 C   0  0  0  0  0  0  0  0  0  0  0  0
   -0.4528    0.2120    0.0000 C   0  0  0  0  0  0  0  0  0  0  0  0
   -1.6829   -0.6465    0.0000 C   0  0  0  0  0  0  0  0  0  0  0  0
   -3.0414   -0.0105    0.0000 C   0  0  0  0  0  0  0  0  0  0  0  0
   -4.3999    0.6255    0.0000 N   0  0  0  0  0  0  0  0  0  0  0  0
    2.1357    0.4345    0.0000 C   0  0  0  0  0  0  0  0  0  0  0  0
    2.0072    1.9290    0.0000 O   0  0  0  0  0  0  0  0  0  0  0  0
    3.4942   -0.2015    0.0000 O   0  0  0  0  0  0  0  0  0  0  0  0
  2  1  1  1
  2  3  1  0
  3  4  1  0
  4  5  1  0
  5  6  3  0
  2  7  1  0
  7  8  2  0
  7  9  1  0
M  END
>  <rName>  (1092) 
Abu_CN

>  <PQ_SYMBOL>  (1092) 
Abu_CN

>  <FULL_NAME>  (1092) 
(2S)-2-amino-4-cyanobutanoic acid

>  <IUPAC_CONDENSED>  (1092) 
Abu(CN)

>  <IUPAC>  (1092) 
(2S)-2-amino-4-cyanobutanoic acid

>  <TYPE>  (1092) 
Backbone

>  <CLASS>  (1092) 
alpha

>  <ANALOG>  (1092) 
Lys

>  <MOL_WT>  (1092) 
128.131

>  <LOGP>  (1092) 
-0.29792000000000024

>  <TPSA>  (1092) 
87.11

>  <POPULARITY>  (1092) 
8.2

>  <PROTECTED>  (1092) 
TRUE

>  <SMILES>  (1092) 
N[C@@H](CCC#N)C(=O)O

>  <INCHIKEY>  (1092) 
VZSTVUJXUYNIOQ-BYPYZUCNSA-N

$$$$
4-aza-Pip
     RDKit          2D

  9  9  0  0  0  0  0  0  0  0999 V2000
    0.4167   -1.2990    0.0000 N   0  0  0  0  0  0  0  0  0  0  0  0
   -0.3333    0.0000    0.0000 C   0  0  0  0  0  0  0  0  0  0  0  0
    0.4167    1.2990    0.0000 C   0  0  0  0  0  0  0  0  0  0  0  0
    1.9167    1.2990    0.0000 N   0  0  0  0  0  0  0  0  0  0  0  0
    2.6667    0.0000    0.0000 C   0  0  0  0  0  0  0  0  0  0  0  0
    1.9167   -1.2990    0.0000 C   0  0  0  0  0  0  0  0  0  0  0  0
   -1.8333   -0.0000    0.0000 C   0  0  0  0  0  0  0  0  0  0  0  0
   -2.5833   -1.2990    0.0000 O   0  0  0  0  0  0  0  0  0  0  0  0
   -2.5833    1.2990    0.0000 O   0  0  0  0  0  0  0  0  0  0  0  0
  1  2  1  0
  2  3  1  0
  3  4  1  0
  4  5  1  0
  5  6  1  0
  2  7  1  6
  7  8  2  0
  7  9  1  0
  6  1  1  0
M  END
>  <rName>  (1093) 
4-aza-Pip

>  <PQ_SYMBOL>  (1093) 
4-aza-Pip

>  <FULL_NAME>  (1093) 
(2S)-piperazine-2-carboxylic acid

>  <IUPAC_CONDENSED>  (1093) 
4-aza-Pip

>  <IUPAC>  (1093) 
(2S)-piperazine-2-carboxylic acid

>  <TYPE>  (1093) 
Backbone

>  <CLASS>  (1093) 
alpha

>  <ANALOG>  (1093) 
Pro

>  <MOL_WT>  (1093) 
130.14700000000002

>  <LOGP>  (1093) 
-1.3675999999999993

>  <TPSA>  (1093) 
61.36

>  <POPULARITY>  (1093) 
14.4

>  <PROTECTED>  (1093) 
TRUE

>  <SMILES>  (1093) 
N1[C@@H](CNCC1)C(=O)O

>  <INCHIKEY>  (1093) 
JSSXHAMIXJGYCS-BYPYZUCNSA-N

$$$$
Thz_Me2
     RDKit          2D

 10 10  0  0  0  0  0  0  0  0999 V2000
   -0.3816   -0.8744    0.0000 N   0  0  0  0  0  0  0  0  0  0  0  0
    0.7221    0.1414    0.0000 C   0  0  0  0  0  0  0  0  0  0  0  0
    0.0971    1.5050    0.0000 C   0  0  0  0  0  0  0  0  0  0  0  0
   -1.3929    1.3319    0.0000 S   0  0  0  0  0  0  0  0  0  0  0  0
   -1.6888   -0.1386    0.0000 C   0  0  0  0  0  0  0  0  0  0  0  0
   -2.2839   -1.5155    0.0000 C   0  0  0  0  0  0  0  0  0  0  0  0
   -3.1203    0.3093    0.0000 C   0  0  0  0  0  0  0  0  0  0  0  0
    2.1926   -0.1544    0.0000 C   0  0  0  0  0  0  0  0  0  0  0  0
    3.1841    0.9712    0.0000 O   0  0  0  0  0  0  0  0  0  0  0  0
    2.6717   -1.5759    0.0000 O   0  0  0  0  0  0  0  0  0  0  0  0
  1  2  1  0
  2  3  1  0
  3  4  1  0
  4  5  1  0
  5  6  1  0
  5  7  1  0
  2  8  1  1
  8  9  2  0
  8 10  1  0
  5  1  1  0
M  END
>  <rName>  (1094) 
Thz_Me2

>  <PQ_SYMBOL>  (1094) 
Thz_Me2

>  <FULL_NAME>  (1094) 
(4R)-2,2-dimethyl-1,3-thiazolidine-4-carboxylic acid

>  <IUPAC_CONDENSED>  (1094) 
Thz(Me2)

>  <IUPAC>  (1094) 
(4R)-2,2-dimethyl-thiazolidine-4-carboxylic acid

>  <TYPE>  (1094) 
Backbone

>  <CLASS>  (1094) 
alpha

>  <ANALOG>  (1094) 
Pro

>  <MOL_WT>  (1094) 
161.226

>  <LOGP>  (1094) 
0.5121

>  <TPSA>  (1094) 
49.33

>  <POPULARITY>  (1094) 
17.9

>  <PROTECTED>  (1094) 
TRUE

>  <SMILES>  (1094) 
N1[C@@H](CSC1(C)C)C(=O)O

>  <INCHIKEY>  (1094) 
OCQICQZUUHJWGZ-BYPYZUCNSA-N

$$$$
Phe_CF2PO3
     RDKit          2D

 19 19  0  0  0  0  0  0  0  0999 V2000
   -3.3479    1.6744    0.0000 N   0  0  0  0  0  0  0  0  0  0  0  0
   -3.7159    0.2202    0.0000 C   0  0  0  0  0  0  0  0  0  0  0  0
   -2.6405   -0.8255    0.0000 C   0  0  0  0  0  0  0  0  0  0  0  0
   -1.1972   -0.4171    0.0000 C   0  0  0  0  0  0  0  0  0  0  0  0
   -0.8292    1.0371    0.0000 C   0  0  0  0  0  0  0  0  0  0  0  0
    0.6141    1.4455    0.0000 C   0  0  0  0  0  0  0  0  0  0  0  0
    1.6895    0.3998    0.0000 C   0  0  0  0  0  0  0  0  0  0  0  0
    1.3215   -1.0544    0.0000 C   0  0  0  0  0  0  0  0  0  0  0  0
   -0.1218   -1.4628    0.0000 C   0  0  0  0  0  0  0  0  0  0  0  0
    3.1328    0.8083    0.0000 C   0  0  0  0  0  0  0  0  0  0  0  0
    4.5761    1.2167    0.0000 F   0  0  0  0  0  0  0  0  0  0  0  0
    2.7243    2.2516    0.0000 F   0  0  0  0  0  0  0  0  0  0  0  0
    3.5412   -0.6351    0.0000 P   0  0  0  0  0  0  0  0  0  0  0  0
    3.9497   -2.0784    0.0000 O   0  0  0  0  0  0  0  0  0  0  0  0
    4.9846   -0.2266    0.0000 O   0  0  0  0  0  0  0  0  0  0  0  0
    2.2396   -1.3806    0.0000 O   0  0  0  0  0  0  0  0  0  0  0  0
   -5.1592   -0.1882    0.0000 C   0  0  0  0  0  0  0  0  0  0  0  0
   -5.5271   -1.6424    0.0000 O   0  0  0  0  0  0  0  0  0  0  0  0
   -6.2346    0.8575    0.0000 O   0  0  0  0  0  0  0  0  0  0  0  0
  2  1  1  1
  2  3  1  0
  3  4  1  0
  4  5  1  0
  5  6  2  0
  6  7  1  0
  7  8  2  0
  8  9  1  0
  7 10  1  0
 10 11  1  0
 10 12  1  0
 10 13  1  0
 13 14  2  0
 13 15  1  0
 13 16  1  0
  2 17  1  0
 17 18  2  0
 17 19  1  0
  9  4  2  0
M  END
>  <rName>  (1095) 
Phe_CF2PO3

>  <PQ_SYMBOL>  (1095) 
Phe_CF2PO3

>  <FULL_NAME>  (1095) 
(2S)-2-amino-3-[4-[difluoro(phosphono)methyl]phenyl]propanoic acid

>  <IUPAC_CONDENSED>  (1095) 
Phe(CF2PO3)

>  <IUPAC>  (1095) 
(2S)-2-amino-3-(4-(dihydroxyphosphoryldifluoromethyl)phenyl)propanoic acid

>  <TYPE>  (1095) 
Backbone

>  <CLASS>  (1095) 
alpha

>  <ANALOG>  (1095) 
Phe

>  <MOL_WT>  (1095) 
295.178

>  <LOGP>  (1095) 
0.8679999999999999

>  <TPSA>  (1095) 
120.85000000000001

>  <POPULARITY>  (1095) 
21.1

>  <PROTECTED>  (1095) 
TRUE

>  <SMILES>  (1095) 
N[C@@H](Cc1(ccc(cc1)C(F)(F)P(=O)(O)O))C(=O)O

>  <INCHIKEY>  (1095) 
HRDUMKHDIFUQGB-QMMMGPOBSA-N

$$$$
D-Tyr_3I
     RDKit          2D

 14 14  0  0  0  0  0  0  0  0999 V2000
   -2.0094    1.6916    0.0000 N   0  0  0  0  0  0  0  0  0  0  0  0
   -2.3243    0.2250    0.0000 C   0  0  0  0  0  0  0  0  0  0  0  0
   -1.2116   -0.7809    0.0000 C   0  0  0  0  0  0  0  0  0  0  0  0
    0.2159   -0.3203    0.0000 C   0  0  0  0  0  0  0  0  0  0  0  0
    0.5308    1.1463    0.0000 C   0  0  0  0  0  0  0  0  0  0  0  0
    1.9583    1.6069    0.0000 C   0  0  0  0  0  0  0  0  0  0  0  0
    3.0710    0.6009    0.0000 C   0  0  0  0  0  0  0  0  0  0  0  0
    4.4985    1.0615    0.0000 O   0  0  0  0  0  0  0  0  0  0  0  0
    2.7561   -0.8657    0.0000 C   0  0  0  0  0  0  0  0  0  0  0  0
    3.8688   -1.8716    0.0000 I   0  0  0  0  0  0  0  0  0  0  0  0
    1.3286   -1.3263    0.0000 C   0  0  0  0  0  0  0  0  0  0  0  0
   -3.7518   -0.2356    0.0000 C   0  0  0  0  0  0  0  0  0  0  0  0
   -4.0666   -1.7022    0.0000 O   0  0  0  0  0  0  0  0  0  0  0  0
   -4.8644    0.7704    0.0000 O   0  0  0  0  0  0  0  0  0  0  0  0
  2  1  1  6
  2  3  1  0
  3  4  1  0
  4  5  1  0
  5  6  2  0
  6  7  1  0
  7  8  1  0
  7  9  2  0
  9 10  1  0
  9 11  1  0
  2 12  1  0
 12 13  2  0
 12 14  1  0
 11  4  2  0
M  END
>  <rName>  (1096) 
D-Tyr_3I

>  <PQ_SYMBOL>  (1096) 
D-Tyr_3I

>  <FULL_NAME>  (1096) 
(2R)-2-amino-3-(4-hydroxy-3-iodophenyl)propanoic acid

>  <IUPAC_CONDENSED>  (1096) 
D-Tyr(3-I)

>  <IUPAC>  (1096) 
(2R)-2-amino-3-(4-hydroxy-3-iodophenyl)propanoic acid

>  <TYPE>  (1096) 
Backbone

>  <CLASS>  (1096) 
alpha

>  <ANALOG>  (1096) 
Tyr

>  <MOL_WT>  (1096) 
307.087

>  <LOGP>  (1096) 
0.9512

>  <TPSA>  (1096) 
83.55

>  <POPULARITY>  (1096) 
12.6

>  <PROTECTED>  (1096) 
TRUE

>  <SMILES>  (1096) 
N[C@H](Cc1(ccc(O)c(I)c1))C(=O)O

>  <INCHIKEY>  (1096) 
UQTZMGFTRHFAAM-SSDOTTSWSA-N

$$$$
Tyr_23_56tetraF
     RDKit          2D

 17 17  0  0  0  0  0  0  0  0999 V2000
   -2.1241    1.6089    0.0000 N   0  0  0  0  0  0  0  0  0  0  0  0
   -2.4801    0.1517    0.0000 C   0  0  0  0  0  0  0  0  0  0  0  0
   -1.3962   -0.8851    0.0000 C   0  0  0  0  0  0  0  0  0  0  0  0
    0.0438   -0.4648    0.0000 C   0  0  0  0  0  0  0  0  0  0  0  0
    0.3997    0.9923    0.0000 C   0  0  0  0  0  0  0  0  0  0  0  0
   -0.6842    2.0292    0.0000 F   0  0  0  0  0  0  0  0  0  0  0  0
    1.8397    1.4126    0.0000 C   0  0  0  0  0  0  0  0  0  0  0  0
    2.1956    2.8697    0.0000 F   0  0  0  0  0  0  0  0  0  0  0  0
    2.9236    0.3757    0.0000 C   0  0  0  0  0  0  0  0  0  0  0  0
    4.3635    0.7960    0.0000 O   0  0  0  0  0  0  0  0  0  0  0  0
    2.5676   -1.0814    0.0000 C   0  0  0  0  0  0  0  0  0  0  0  0
    3.6515   -2.1183    0.0000 F   0  0  0  0  0  0  0  0  0  0  0  0
    1.1277   -1.5017    0.0000 C   0  0  0  0  0  0  0  0  0  0  0  0
    0.7717   -2.9589    0.0000 F   0  0  0  0  0  0  0  0  0  0  0  0
   -3.9200   -0.2685    0.0000 C   0  0  0  0  0  0  0  0  0  0  0  0
   -4.2760   -1.7257    0.0000 O   0  0  0  0  0  0  0  0  0  0  0  0
   -5.0039    0.7683    0.0000 O   0  0  0  0  0  0  0  0  0  0  0  0
  2  1  1  1
  2  3  1  0
  3  4  1  0
  4  5  2  0
  5  6  1  0
  5  7  1  0
  7  8  1  0
  7  9  2  0
  9 10  1  0
  9 11  1  0
 11 12  1  0
 11 13  2  0
 13 14  1  0
  2 15  1  0
 15 16  2  0
 15 17  1  0
 13  4  1  0
M  END
>  <rName>  (1097) 
Tyr_23_56tetraF

>  <PQ_SYMBOL>  (1097) 
Tyr_23_56tetraF

>  <FULL_NAME>  (1097) 
(2S)-2-amino-3-(2,3,5,6-tetrafluoro-4-hydroxyphenyl)propanoic acid

>  <IUPAC_CONDENSED>  (1097) 
Tyr(2,3,5,6-tetraF)

>  <IUPAC>  (1097) 
(2S)-2-amino-3-(2,3,5,6-tetrafluoro-4-hydroxyphenyl)propanoic acid

>  <TYPE>  (1097) 
Backbone

>  <CLASS>  (1097) 
alpha

>  <ANALOG>  (1097) 
Tyr

>  <MOL_WT>  (1097) 
253.15099999999998

>  <LOGP>  (1097) 
0.903

>  <TPSA>  (1097) 
83.55

>  <POPULARITY>  (1097) 
8.4

>  <PROTECTED>  (1097) 
TRUE

>  <SMILES>  (1097) 
N[C@@H](Cc1(c(F)c(F)c(O)c(F)c1F))C(=O)O

>  <INCHIKEY>  (1097) 
KFUSMUNGVKVABM-VKHMYHEASA-N

$$$$
NiPr-G
     RDKit          2D

  8  7  0  0  0  0  0  0  0  0999 V2000
   -0.5669    0.4910    0.0000 N   0  0  0  0  0  0  0  0  0  0  0  0
   -1.9843    0.0000    0.0000 C   0  0  0  0  0  0  0  0  0  0  0  0
   -3.1182    0.9820    0.0000 C   0  0  0  0  0  0  0  0  0  0  0  0
   -2.2678   -1.4730    0.0000 C   0  0  0  0  0  0  0  0  0  0  0  0
    0.5669   -0.4910    0.0000 C   0  0  0  0  0  0  0  0  0  0  0  0
    1.9843    0.0000    0.0000 C   0  0  0  0  0  0  0  0  0  0  0  0
    2.2678    1.4730    0.0000 O   0  0  0  0  0  0  0  0  0  0  0  0
    3.1182   -0.9820    0.0000 O   0  0  0  0  0  0  0  0  0  0  0  0
  1  2  1  0
  2  3  1  0
  2  4  1  0
  1  5  1  0
  5  6  1  0
  6  7  2  0
  6  8  1  0
M  END
>  <rName>  (1098) 
NiPr-G

>  <PQ_SYMBOL>  (1098) 
NiPr-G

>  <FULL_NAME>  (1098) 
2-(propan-2-ylamino)acetic acid

>  <IUPAC_CONDENSED>  (1098) 
iPr-Gly

>  <IUPAC>  (1098) 
2-((propan-2-yl)amino)acetic acid

>  <TYPE>  (1098) 
Backbone

>  <CLASS>  (1098) 
alpha

>  <ANALOG>  (1098) 
Gly

>  <MOL_WT>  (1098) 
117.14799999999998

>  <LOGP>  (1098) 
0.06899999999999967

>  <TPSA>  (1098) 
49.33

>  <POPULARITY>  (1098) 
27.5

>  <PROTECTED>  (1098) 
TRUE

>  <SMILES>  (1098) 
N(C(C)C)CC(=O)O

>  <INCHIKEY>  (1098) 
HEPOIJKOXBKKNJ-UHFFFAOYSA-N

$$$$
Pro_4SN3
     RDKit          2D

 11 11  0  0  0  0  0  0  0  0999 V2000
    1.2535   -1.6430    0.0000 N   0  0  0  0  0  0  0  0  0  0  0  0
    1.2696   -0.1431    0.0000 C   0  0  0  0  0  0  0  0  0  0  0  0
   -0.1519    0.3357    0.0000 C   0  0  0  0  0  0  0  0  0  0  0  0
   -1.0466   -0.8682    0.0000 C   0  0  0  0  0  0  0  0  0  0  0  0
   -0.1780   -2.0912    0.0000 C   0  0  0  0  0  0  0  0  0  0  0  0
   -2.5465   -0.8521    0.0000 N   0  0  0  0  0  0  0  0  0  0  0  0
   -3.2825    0.4549    0.0000 N   0  0  0  0  0  0  0  0  0  0  0  0
   -4.0185    1.7619    0.0000 N   0  0  0  0  0  0  0  0  0  0  0  0
    2.4926    0.7255    0.0000 C   0  0  0  0  0  0  0  0  0  0  0  0
    2.3518    2.2189    0.0000 O   0  0  0  0  0  0  0  0  0  0  0  0
    3.8563    0.1007    0.0000 O   0  0  0  0  0  0  0  0  0  0  0  0
  1  2  1  0
  2  3  1  0
  3  4  1  0
  4  5  1  0
  4  6  1  1
  6  7  1  0
  7  8  3  0
  2  9  1  1
  9 10  2  0
  9 11  1  0
  5  1  1  0
M  CHG  2   6  -1   7   1
M  END
>  <rName>  (1099) 
Pro_4SN3

>  <PQ_SYMBOL>  (1099) 
Pro_4SN3

>  <FULL_NAME>  (1099) 
(2S,4S)-4-azidopyrrolidine-2-carboxylic acid

>  <IUPAC_CONDENSED>  (1099) 
Pro(4S-N3)

>  <IUPAC>  (1099) 
(2S,4S)-4-azidopyrrolidine-2-carboxylic acid

>  <TYPE>  (1099) 
Backbone

>  <CLASS>  (1099) 
alpha

>  <ANALOG>  (1099) 
Pro

>  <MOL_WT>  (1099) 
156.14500000000004

>  <LOGP>  (1099) 
-0.05672000000000038

>  <TPSA>  (1099) 
91.58

>  <POPULARITY>  (1099) 
10.4

>  <PROTECTED>  (1099) 
TRUE

>  <SMILES>  (1099) 
N1[C@@H](C[C@@H](C1)[N-][N+]#N)C(=O)O

>  <INCHIKEY>  (1099) 
PPRFZPZRQYPCER-IMJSIDKUSA-N

$$$$
Ala_uracil1yl
     RDKit          2D

 14 14  0  0  0  0  0  0  0  0999 V2000
   -1.7174    1.8436    0.0000 N   0  0  0  0  0  0  0  0  0  0  0  0
   -2.1036    0.3942    0.0000 C   0  0  0  0  0  0  0  0  0  0  0  0
   -1.0414   -0.6650    0.0000 C   0  0  0  0  0  0  0  0  0  0  0  0
    0.4069   -0.2747    0.0000 N   0  0  0  0  0  0  0  0  0  0  0  0
    0.7931    1.1747    0.0000 C   0  0  0  0  0  0  0  0  0  0  0  0
    2.2415    1.5649    0.0000 C   0  0  0  0  0  0  0  0  0  0  0  0
    3.3036    0.5057    0.0000 C   0  0  0  0  0  0  0  0  0  0  0  0
    4.7520    0.8960    0.0000 O   0  0  0  0  0  0  0  0  0  0  0  0
    2.9174   -0.9437    0.0000 N   0  0  0  0  0  0  0  0  0  0  0  0
    1.4691   -1.3339    0.0000 C   0  0  0  0  0  0  0  0  0  0  0  0
    1.0829   -2.7834    0.0000 O   0  0  0  0  0  0  0  0  0  0  0  0
   -3.5519    0.0039    0.0000 C   0  0  0  0  0  0  0  0  0  0  0  0
   -3.9381   -1.4455    0.0000 O   0  0  0  0  0  0  0  0  0  0  0  0
   -4.6140    1.0631    0.0000 O   0  0  0  0  0  0  0  0  0  0  0  0
  2  1  1  1
  2  3  1  0
  3  4  1  0
  4  5  1  0
  5  6  2  0
  6  7  1  0
  7  8  2  0
  7  9  1  0
  9 10  1  0
 10 11  2  0
  2 12  1  0
 12 13  2  0
 12 14  1  0
 10  4  1  0
M  END
>  <rName>  (1100) 
Ala_uracil1yl

>  <PQ_SYMBOL>  (1100) 
Ala_uracil1yl

>  <FULL_NAME>  (1100) 
alpha-amino-2,4-dioxopyrimidinepropanoic acid

>  <IUPAC_CONDENSED>  (1100) 
Ala(uracil-1-yl)

>  <IUPAC>  (1100) 
(2S)-2-amino-3-(2,4-dioxo-1,3-diazacyclohex-5-en-1-yl)propanoic acid

>  <TYPE>  (1100) 
Backbone

>  <CLASS>  (1100) 
alpha

>  <ANALOG>  (1100) 
Phe

>  <MOL_WT>  (1100) 
199.16599999999997

>  <LOGP>  (1100) 
-2.0515

>  <TPSA>  (1100) 
118.17999999999999

>  <POPULARITY>  (1100) 
8.8

>  <PROTECTED>  (1100) 
FALSE

>  <SMILES>  (1100) 
N[C@@H](Cn1(ccc(=O)[nH]c1=O))C(=O)O

>  <INCHIKEY>  (1100) 
FACUYWPMDKTVFU-BYPYZUCNSA-N

$$$$
D-Tyr_35diI
     RDKit          2D

 15 15  0  0  0  0  0  0  0  0999 V2000
   -2.0609    1.6226    0.0000 N   0  0  0  0  0  0  0  0  0  0  0  0
   -2.4694    0.1793    0.0000 C   0  0  0  0  0  0  0  0  0  0  0  0
   -1.4237   -0.8961    0.0000 C   0  0  0  0  0  0  0  0  0  0  0  0
    0.0305   -0.5283    0.0000 C   0  0  0  0  0  0  0  0  0  0  0  0
    0.4390    0.9150    0.0000 C   0  0  0  0  0  0  0  0  0  0  0  0
    1.8932    1.2829    0.0000 C   0  0  0  0  0  0  0  0  0  0  0  0
    2.3017    2.7262    0.0000 I   0  0  0  0  0  0  0  0  0  0  0  0
    2.9389    0.2075    0.0000 C   0  0  0  0  0  0  0  0  0  0  0  0
    4.3931    0.5753    0.0000 O   0  0  0  0  0  0  0  0  0  0  0  0
    2.5304   -1.2358    0.0000 C   0  0  0  0  0  0  0  0  0  0  0  0
    3.5760   -2.3113    0.0000 I   0  0  0  0  0  0  0  0  0  0  0  0
    1.0762   -1.6037    0.0000 C   0  0  0  0  0  0  0  0  0  0  0  0
   -3.9236   -0.1886    0.0000 C   0  0  0  0  0  0  0  0  0  0  0  0
   -4.3321   -1.6319    0.0000 O   0  0  0  0  0  0  0  0  0  0  0  0
   -4.9693    0.8868    0.0000 O   0  0  0  0  0  0  0  0  0  0  0  0
  2  1  1  6
  2  3  1  0
  3  4  1  0
  4  5  2  0
  5  6  1  0
  6  7  1  0
  6  8  2  0
  8  9  1  0
  8 10  1  0
 10 11  1  0
 10 12  2  0
  2 13  1  0
 13 14  2  0
 13 15  1  0
 12  4  1  0
M  END
>  <rName>  (1101) 
D-Tyr_35diI

>  <PQ_SYMBOL>  (1101) 
D-Tyr_35diI

>  <FULL_NAME>  (1101) 
(2R)-2-amino-3-(4-hydroxy-3,5-diiodophenyl)propanoic acid

>  <IUPAC_CONDENSED>  (1101) 
D-Tyr(3,5-diI)

>  <IUPAC>  (1101) 
(2R)-2-amino-3-(4-hydroxy-3,5-diiodophenyl)propanoic acid

>  <TYPE>  (1101) 
Backbone

>  <CLASS>  (1101) 
alpha

>  <ANALOG>  (1101) 
Tyr

>  <MOL_WT>  (1101) 
432.98300000000006

>  <LOGP>  (1101) 
1.5557999999999998

>  <TPSA>  (1101) 
83.55

>  <POPULARITY>  (1101) 
10.1

>  <PROTECTED>  (1101) 
TRUE

>  <SMILES>  (1101) 
N[C@H](Cc1(cc(I)c(O)c(I)c1))C(=O)O

>  <INCHIKEY>  (1101) 
NYPYHUZRZVSYKL-SSDOTTSWSA-N

$$$$
NMe-D-Hcy
     RDKit          2D

  9  8  0  0  0  0  0  0  0  0999 V2000
   -1.4625    1.4907    0.0000 N   0  0  0  0  0  0  0  0  0  0  0  0
   -2.8857    1.0168    0.0000 C   0  0  0  0  0  0  0  0  0  0  0  0
   -0.3405    0.4951    0.0000 C   0  0  0  0  0  0  0  0  0  0  0  0
    1.0826    0.9690    0.0000 C   0  0  0  0  0  0  0  0  0  0  0  0
    2.2046   -0.0266    0.0000 C   0  0  0  0  0  0  0  0  0  0  0  0
    3.6278    0.4473    0.0000 S   0  0  0  0  0  0  0  0  0  0  0  0
   -0.6417   -0.9743    0.0000 C   0  0  0  0  0  0  0  0  0  0  0  0
   -2.0649   -1.4482    0.0000 O   0  0  0  0  0  0  0  0  0  0  0  0
    0.4803   -1.9699    0.0000 O   0  0  0  0  0  0  0  0  0  0  0  0
  1  2  1  0
  1  3  1  0
  3  4  1  6
  4  5  1  0
  5  6  1  0
  3  7  1  0
  7  8  2  0
  7  9  1  0
M  END
>  <rName>  (1102) 
NMe-D-Hcy

>  <PQ_SYMBOL>  (1102) 
NMe-D-Hcy

>  <FULL_NAME>  (1102) 
methyl D-homocysteine

>  <IUPAC_CONDENSED>  (1102) 
Me-D-Hcy

>  <IUPAC>  (1102) 
(2R)-2-(methylamino)-4-sulfanylbutanoic acid

>  <TYPE>  (1102) 
Backbone

>  <CLASS>  (1102) 
alpha

>  <ANALOG>  (1102) 
Cys

>  <MOL_WT>  (1102) 
149.215

>  <LOGP>  (1102) 
-0.02110000000000012

>  <TPSA>  (1102) 
49.33

>  <POPULARITY>  (1102) 
11.4

>  <PROTECTED>  (1102) 
TRUE

>  <SMILES>  (1102) 
N(C)[C@H](CCS)C(=O)O

>  <INCHIKEY>  (1102) 
PHMDDWYPVDXMNL-SCSAIBSYSA-N

$$$$
Lys_TAc
     RDKit          2D

 13 12  0  0  0  0  0  0  0  0999 V2000
   -2.9072   -1.8790    0.0000 N   0  0  0  0  0  0  0  0  0  0  0  0
   -2.9824   -0.3808    0.0000 C   0  0  0  0  0  0  0  0  0  0  0  0
   -1.7226    0.4334    0.0000 C   0  0  0  0  0  0  0  0  0  0  0  0
   -0.3876   -0.2505    0.0000 C   0  0  0  0  0  0  0  0  0  0  0  0
    0.8722    0.5637    0.0000 C   0  0  0  0  0  0  0  0  0  0  0  0
    2.2072   -0.1202    0.0000 C   0  0  0  0  0  0  0  0  0  0  0  0
    3.4670    0.6940    0.0000 N   0  0  0  0  0  0  0  0  0  0  0  0
    4.8020    0.0101    0.0000 C   0  0  0  0  0  0  0  0  0  0  0  0
    6.0618    0.8243    0.0000 C   0  0  0  0  0  0  0  0  0  0  0  0
    4.8772   -1.4880    0.0000 S   0  0  0  0  0  0  0  0  0  0  0  0
   -4.3175    0.3030    0.0000 C   0  0  0  0  0  0  0  0  0  0  0  0
   -4.3927    1.8012    0.0000 O   0  0  0  0  0  0  0  0  0  0  0  0
   -5.5772   -0.5112    0.0000 O   0  0  0  0  0  0  0  0  0  0  0  0
  2  1  1  6
  2  3  1  0
  3  4  1  0
  4  5  1  0
  5  6  1  0
  6  7  1  0
  7  8  1  0
  8  9  1  0
  8 10  2  0
  2 11  1  0
 11 12  2  0
 11 13  1  0
M  END
>  <rName>  (1103) 
Lys_TAc

>  <PQ_SYMBOL>  (1103) 
Lys_TAc

>  <FULL_NAME>  (1103) 
6-N-Thiolacetyl-L-Lysine, N-epsilon-Thioacetyllysine

>  <IUPAC_CONDENSED>  (1103) 
Lys(TAc)

>  <IUPAC>  (1103) 
(2S)-2-amino-6-methylcarbonothioylaminohexanoic acid

>  <TYPE>  (1103) 
Backbone

>  <CLASS>  (1103) 
alpha

>  <ANALOG>  (1103) 
Lys

>  <MOL_WT>  (1103) 
204.295

>  <LOGP>  (1103) 
0.5054999999999996

>  <TPSA>  (1103) 
75.35

>  <POPULARITY>  (1103) 
22

>  <PROTECTED>  (1103) 
TRUE

>  <SMILES>  (1103) 
N[C@@H](CCCCNC(C)=S)C(=O)O

>  <INCHIKEY>  (1103) 
SLVMGVMSUOULGW-ZETCQYMHSA-N

$$$$
Gly_Pr_Pr
     RDKit          2D

 11 10  0  0  0  0  0  0  0  0999 V2000
   -0.0000    1.4367    0.0000 N   0  0  0  0  0  0  0  0  0  0  0  0
   -0.0000   -0.0633    0.0000 C   0  0  0  0  0  0  0  0  0  0  0  0
   -1.5000   -0.0633    0.0000 C   0  0  0  0  0  0  0  0  0  0  0  0
   -2.2500    1.2358    0.0000 C   0  0  0  0  0  0  0  0  0  0  0  0
   -3.7500    1.2358    0.0000 C   0  0  0  0  0  0  0  0  0  0  0  0
    1.5000   -0.0633    0.0000 C   0  0  0  0  0  0  0  0  0  0  0  0
    2.2500    1.2358    0.0000 C   0  0  0  0  0  0  0  0  0  0  0  0
    3.7500    1.2358    0.0000 C   0  0  0  0  0  0  0  0  0  0  0  0
    0.0000   -1.5633    0.0000 C   0  0  0  0  0  0  0  0  0  0  0  0
   -1.2990   -2.3133    0.0000 O   0  0  0  0  0  0  0  0  0  0  0  0
    1.2990   -2.3133    0.0000 O   0  0  0  0  0  0  0  0  0  0  0  0
  1  2  1  0
  2  3  1  0
  3  4  1  0
  4  5  1  0
  2  6  1  0
  6  7  1  0
  7  8  1  0
  2  9  1  0
  9 10  2  0
  9 11  1  0
M  END
>  <rName>  (1104) 
Gly_Pr_Pr

>  <PQ_SYMBOL>  (1104) 
Gly_Pr_Pr

>  <FULL_NAME>  (1104) 
Dipropylglycine

>  <IUPAC_CONDENSED>  (1104) 
Gly(Pr,Pr)

>  <IUPAC>  (1104) 
2-amino-2-propylpentanoic acid

>  <TYPE>  (1104) 
Backbone

>  <CLASS>  (1104) 
alpha

>  <ANALOG>  (1104) 
Leu

>  <MOL_WT>  (1104) 
159.229

>  <LOGP>  (1104) 
1.3687

>  <TPSA>  (1104) 
63.32000000000001

>  <POPULARITY>  (1104) 
18.8

>  <PROTECTED>  (1104) 
TRUE

>  <SMILES>  (1104) 
NC(CCC)(CCC)C(=O)O

>  <INCHIKEY>  (1104) 
CZHCGMZJLLOYJW-UHFFFAOYSA-N

$$$$
Tyr_35diBr
     RDKit          2D

 15 15  0  0  0  0  0  0  0  0999 V2000
   -2.0609    1.6226    0.0000 N   0  0  0  0  0  0  0  0  0  0  0  0
   -2.4694    0.1793    0.0000 C   0  0  0  0  0  0  0  0  0  0  0  0
   -1.4237   -0.8961    0.0000 C   0  0  0  0  0  0  0  0  0  0  0  0
    0.0305   -0.5283    0.0000 C   0  0  0  0  0  0  0  0  0  0  0  0
    0.4390    0.9150    0.0000 C   0  0  0  0  0  0  0  0  0  0  0  0
    1.8932    1.2829    0.0000 C   0  0  0  0  0  0  0  0  0  0  0  0
    2.3017    2.7262    0.0000 Br  0  0  0  0  0  0  0  0  0  0  0  0
    2.9389    0.2075    0.0000 C   0  0  0  0  0  0  0  0  0  0  0  0
    4.3931    0.5753    0.0000 O   0  0  0  0  0  0  0  0  0  0  0  0
    2.5304   -1.2358    0.0000 C   0  0  0  0  0  0  0  0  0  0  0  0
    3.5760   -2.3113    0.0000 Br  0  0  0  0  0  0  0  0  0  0  0  0
    1.0762   -1.6037    0.0000 C   0  0  0  0  0  0  0  0  0  0  0  0
   -3.9236   -0.1886    0.0000 C   0  0  0  0  0  0  0  0  0  0  0  0
   -4.3321   -1.6319    0.0000 O   0  0  0  0  0  0  0  0  0  0  0  0
   -4.9693    0.8868    0.0000 O   0  0  0  0  0  0  0  0  0  0  0  0
  2  1  1  1
  2  3  1  0
  3  4  1  0
  4  5  2  0
  5  6  1  0
  6  7  1  0
  6  8  2  0
  8  9  1  0
  8 10  1  0
 10 11  1  0
 10 12  2  0
  2 13  1  0
 13 14  2  0
 13 15  1  0
 12  4  1  0
M  END
>  <rName>  (1105) 
Tyr_35diBr

>  <PQ_SYMBOL>  (1105) 
Tyr_35diBr

>  <FULL_NAME>  (1105) 
3,5-dibromo-L-Tyrosine

>  <IUPAC_CONDENSED>  (1105) 
Tyr(3,5-diBr)

>  <IUPAC>  (1105) 
(2S)-2-amino-3-(3,5-dibromo-4-hydroxyphenyl)propanoic acid

>  <TYPE>  (1105) 
Backbone

>  <CLASS>  (1105) 
alpha

>  <ANALOG>  (1105) 
Tyr

>  <MOL_WT>  (1105) 
338.98300000000006

>  <LOGP>  (1105) 
1.8716000000000002

>  <TPSA>  (1105) 
83.55

>  <POPULARITY>  (1105) 
15.8

>  <PROTECTED>  (1105) 
TRUE

>  <SMILES>  (1105) 
N[C@@H](Cc1(cc(Br)c(O)c(Br)c1))C(=O)O

>  <INCHIKEY>  (1105) 
COESHZUDRKCEPA-ZETCQYMHSA-N

$$$$
D-Nle_4Et
     RDKit          2D

 11 10  0  0  0  0  0  0  0  0999 V2000
   -0.9775   -1.6170    0.0000 N   0  0  0  0  0  0  0  0  0  0  0  0
   -0.9473   -0.1173    0.0000 C   0  0  0  0  0  0  0  0  0  0  0  0
    0.3666    0.6064    0.0000 C   0  0  0  0  0  0  0  0  0  0  0  0
    1.6502   -0.1696    0.0000 C   0  0  0  0  0  0  0  0  0  0  0  0
    2.9641    0.5541    0.0000 C   0  0  0  0  0  0  0  0  0  0  0  0
    2.9943    2.0538    0.0000 C   0  0  0  0  0  0  0  0  0  0  0  0
    1.6200   -1.6693    0.0000 C   0  0  0  0  0  0  0  0  0  0  0  0
    0.3062   -2.3930    0.0000 C   0  0  0  0  0  0  0  0  0  0  0  0
   -2.2310    0.6587    0.0000 C   0  0  0  0  0  0  0  0  0  0  0  0
   -2.2008    2.1584    0.0000 O   0  0  0  0  0  0  0  0  0  0  0  0
   -3.5449   -0.0650    0.0000 O   0  0  0  0  0  0  0  0  0  0  0  0
  2  1  1  1
  2  3  1  0
  3  4  1  0
  4  5  1  0
  5  6  1  0
  4  7  1  0
  7  8  1  0
  2  9  1  0
  9 10  2  0
  9 11  1  0
M  END
>  <rName>  (1106) 
D-Nle_4Et

>  <PQ_SYMBOL>  (1106) 
D-Nle_4Et

>  <FULL_NAME>  (1106) 
4-Ethyl-D-Norleucine

>  <IUPAC_CONDENSED>  (1106) 
D-Nle(4-Et)

>  <IUPAC>  (1106) 
(2R)-2-amino-4-ethylhexanoic acid

>  <TYPE>  (1106) 
Backbone

>  <CLASS>  (1106) 
alpha

>  <ANALOG>  (1106) 
Leu

>  <MOL_WT>  (1106) 
159.229

>  <LOGP>  (1106) 
1.2245999999999997

>  <TPSA>  (1106) 
63.32000000000001

>  <POPULARITY>  (1106) 
13.2

>  <PROTECTED>  (1106) 
TRUE

>  <SMILES>  (1106) 
N[C@H](CC(CC)CC)C(=O)O

>  <INCHIKEY>  (1106) 
FNTZSUXNNTXOEI-SSDOTTSWSA-N

$$$$
Ala_tetrazol5yl
     RDKit          2D

 11 11  0  0  0  0  0  0  0  0999 V2000
   -0.9461    1.6947    0.0000 N   0  0  0  0  0  0  0  0  0  0  0  0
   -1.3100    0.2395    0.0000 C   0  0  0  0  0  0  0  0  0  0  0  0
   -0.2317   -0.8032    0.0000 C   0  0  0  0  0  0  0  0  0  0  0  0
    1.2105   -0.3908    0.0000 C   0  0  0  0  0  0  0  0  0  0  0  0
    2.3919   -1.3151    0.0000 N   0  0  0  0  0  0  0  0  0  0  0  0
    3.6360   -0.4772    0.0000 N   0  0  0  0  0  0  0  0  0  0  0  0
    3.2236    0.9650    0.0000 N   0  0  0  0  0  0  0  0  0  0  0  0
    1.7245    1.0184    0.0000 N   0  0  0  0  0  0  0  0  0  0  0  0
   -2.7522   -0.1729    0.0000 C   0  0  0  0  0  0  0  0  0  0  0  0
   -3.1161   -1.6281    0.0000 O   0  0  0  0  0  0  0  0  0  0  0  0
   -3.8304    0.8698    0.0000 O   0  0  0  0  0  0  0  0  0  0  0  0
  2  1  1  1
  2  3  1  0
  3  4  1  0
  4  5  2  0
  5  6  1  0
  6  7  2  0
  7  8  1  0
  2  9  1  0
  9 10  2  0
  9 11  1  0
  8  4  1  0
M  END
>  <rName>  (1107) 
Ala_tetrazol5yl

>  <PQ_SYMBOL>  (1107) 
Ala_tetrazol5yl

>  <FULL_NAME>  (1107) 
3-tetrazol-5-yl-L-alanine

>  <IUPAC_CONDENSED>  (1107) 
Ala(tetrazol-5-yl)

>  <IUPAC>  (1107) 
(2S)-2-amino-3-(1H-tetrazol-5-yl)propanoic acid

>  <TYPE>  (1107) 
Backbone

>  <CLASS>  (1107) 
alpha

>  <ANALOG>  (1107) 
Phe

>  <MOL_WT>  (1107) 
157.133

>  <LOGP>  (1107) 
-1.8459000000000003

>  <TPSA>  (1107) 
117.77999999999999

>  <POPULARITY>  (1107) 
4.6

>  <PROTECTED>  (1107) 
TRUE

>  <SMILES>  (1107) 
N[C@@H](Cc1(nnn[nH]1))C(=O)O

>  <INCHIKEY>  (1107) 
UHDMAEPGMOIEHH-REOHCLBHSA-N

$$$$
2Abz
     RDKit          2D

 10 10  0  0  0  0  0  0  0  0999 V2000
   -0.4166   -2.3203    0.0000 N   0  0  0  0  0  0  0  0  0  0  0  0
    0.3975   -1.0604    0.0000 C   0  0  0  0  0  0  0  0  0  0  0  0
   -0.2866    0.2745    0.0000 C   0  0  0  0  0  0  0  0  0  0  0  0
    0.5274    1.5344    0.0000 C   0  0  0  0  0  0  0  0  0  0  0  0
    2.0255    1.4594    0.0000 C   0  0  0  0  0  0  0  0  0  0  0  0
    2.7096    0.1244    0.0000 C   0  0  0  0  0  0  0  0  0  0  0  0
    1.8956   -1.1355    0.0000 C   0  0  0  0  0  0  0  0  0  0  0  0
   -1.7848    0.3495    0.0000 C   0  0  0  0  0  0  0  0  0  0  0  0
   -2.5988   -0.9104    0.0000 O   0  0  0  0  0  0  0  0  0  0  0  0
   -2.4688    1.6844    0.0000 O   0  0  0  0  0  0  0  0  0  0  0  0
  1  2  1  0
  2  3  1  0
  3  4  2  0
  4  5  1  0
  5  6  2  0
  6  7  1  0
  3  8  1  0
  8  9  2  0
  8 10  1  0
  7  2  2  0
M  END
>  <rName>  (1108) 
2Abz

>  <PQ_SYMBOL>  (1108) 
2Abz

>  <FULL_NAME>  (1108) 
Anthranilic acid

>  <IUPAC_CONDENSED>  (1108) 
2Abz

>  <IUPAC>  (1108) 
2-aminobenzene-1-carboxylic acid

>  <TYPE>  (1108) 
Backbone

>  <CLASS>  (1108) 
unknown

>  <ANALOG>  (1108) 
X

>  <MOL_WT>  (1108) 
137.13799999999998

>  <LOGP>  (1108) 
0.9670000000000001

>  <TPSA>  (1108) 
63.32000000000001

>  <POPULARITY>  (1108) 
29.4

>  <PROTECTED>  (1108) 
FALSE

>  <SMILES>  (1108) 
Nc1c(cccc1)C(=O)O

>  <INCHIKEY>  (1108) 
RWZYAGGXGHYGMB-UHFFFAOYSA-N

$$$$
NHOCOCH2-bAla
     RDKit          2D

 10  9  0  0  0  0  0  0  0  0999 V2000
    0.6897   -0.2947    0.0000 N   0  0  0  0  0  0  0  0  0  0  0  0
   -0.6897    0.2947    0.0000 C   0  0  0  0  0  0  0  0  0  0  0  0
   -1.8898   -0.6050    0.0000 C   0  0  0  0  0  0  0  0  0  0  0  0
   -3.2691   -0.0155    0.0000 C   0  0  0  0  0  0  0  0  0  0  0  0
   -3.4483    1.4737    0.0000 O   0  0  0  0  0  0  0  0  0  0  0  0
   -4.4693   -0.9153    0.0000 O   0  0  0  0  0  0  0  0  0  0  0  0
    1.8898    0.6050    0.0000 C   0  0  0  0  0  0  0  0  0  0  0  0
    3.2691    0.0155    0.0000 C   0  0  0  0  0  0  0  0  0  0  0  0
    3.4483   -1.4737    0.0000 O   0  0  0  0  0  0  0  0  0  0  0  0
    4.4693    0.9153    0.0000 O   0  0  0  0  0  0  0  0  0  0  0  0
  1  2  1  0
  2  3  1  0
  3  4  1  0
  4  5  2  0
  4  6  1  0
  1  7  1  0
  7  8  1  0
  8  9  2  0
  8 10  1  0
M  END
>  <rName>  (1109) 
NHOCOCH2-bAla

>  <PQ_SYMBOL>  (1109) 
NHOCOCH2-bAla

>  <FULL_NAME>  (1109) 
N-(carboxymethyl)-beta alanine

>  <IUPAC_CONDENSED>  (1109) 
HOCOCH2-bAla

>  <IUPAC>  (1109) 
3-((2-hydroxy-2-oxoethyl)amino)propanoic acid

>  <TYPE>  (1109) 
Backbone

>  <CLASS>  (1109) 
alpha

>  <ANALOG>  (1109) 
Gly

>  <MOL_WT>  (1109) 
147.13

>  <LOGP>  (1109) 
-0.8646999999999994

>  <TPSA>  (1109) 
86.63000000000001

>  <POPULARITY>  (1109) 
11.6

>  <PROTECTED>  (1109) 
TRUE

>  <SMILES>  (1109) 
N(CCC(=O)O)CC(=O)O

>  <INCHIKEY>  (1109) 
GAUBNQMYYJLWNF-UHFFFAOYSA-N

$$$$
aCONH2Gaba
     RDKit          2D

 10  9  0  0  0  0  0  0  0  0999 V2000
    1.2717   -1.9622    0.0000 N   0  0  0  0  0  0  0  0  0  0  0  0
    1.1946   -0.4642    0.0000 C   0  0  0  0  0  0  0  0  0  0  0  0
    2.4533    0.3516    0.0000 C   0  0  0  0  0  0  0  0  0  0  0  0
    2.3762    1.8496    0.0000 O   0  0  0  0  0  0  0  0  0  0  0  0
    3.7892   -0.3306    0.0000 N   0  0  0  0  0  0  0  0  0  0  0  0
   -0.1413    0.2180    0.0000 C   0  0  0  0  0  0  0  0  0  0  0  0
   -1.4001   -0.5978    0.0000 C   0  0  0  0  0  0  0  0  0  0  0  0
   -2.7359    0.0845    0.0000 C   0  0  0  0  0  0  0  0  0  0  0  0
   -2.8131    1.5825    0.0000 O   0  0  0  0  0  0  0  0  0  0  0  0
   -3.9947   -0.7313    0.0000 O   0  0  0  0  0  0  0  0  0  0  0  0
  2  1  1  1
  2  3  1  0
  3  4  2  0
  3  5  1  0
  2  6  1  0
  6  7  1  0
  7  8  1  0
  8  9  2  0
  8 10  1  0
M  END
>  <rName>  (1110) 
aCONH2Gaba

>  <PQ_SYMBOL>  (1110) 
aCONH2Gaba

>  <FULL_NAME>  (1110) 
Isoglutamine

>  <IUPAC_CONDENSED>  (1110) 
aCONH2Gaba

>  <IUPAC>  (1110) 
(4S)-4-amino-4-carbamoylbutanoic acid

>  <TYPE>  (1110) 
Backbone

>  <CLASS>  (1110) 
gamma

>  <ANALOG>  (1110) 
X

>  <MOL_WT>  (1110) 
146.14600000000002

>  <LOGP>  (1110) 
-1.3362000000000005

>  <TPSA>  (1110) 
106.41000000000001

>  <POPULARITY>  (1110) 
27.4

>  <PROTECTED>  (1110) 
TRUE

>  <SMILES>  (1110) 
N[C@H](C(=O)N)CCC(=O)O

>  <INCHIKEY>  (1110) 
AEFLONBTGZFSGQ-VKHMYHEASA-N

$$$$
Phe_CHF2
     RDKit          2D

 15 15  0  0  0  0  0  0  0  0999 V2000
   -2.2547    1.6872    0.0000 N   0  0  0  0  0  0  0  0  0  0  0  0
   -2.7489    0.2709    0.0000 C   0  0  0  0  0  0  0  0  0  0  0  0
   -1.7696   -0.8652    0.0000 C   0  0  0  0  0  0  0  0  0  0  0  0
   -0.2959   -0.5852    0.0000 C   0  0  0  0  0  0  0  0  0  0  0  0
    0.1983    0.8311    0.0000 C   0  0  0  0  0  0  0  0  0  0  0  0
    1.6719    1.1111    0.0000 C   0  0  0  0  0  0  0  0  0  0  0  0
    2.6513   -0.0250    0.0000 C   0  0  0  0  0  0  0  0  0  0  0  0
    2.1570   -1.4413    0.0000 C   0  0  0  0  0  0  0  0  0  0  0  0
    0.6834   -1.7213    0.0000 C   0  0  0  0  0  0  0  0  0  0  0  0
    4.1249    0.2550    0.0000 C   0  0  0  0  0  0  0  0  0  0  0  0
    5.1043   -0.8811    0.0000 F   0  0  0  0  0  0  0  0  0  0  0  0
    4.6192    1.6713    0.0000 F   0  0  0  0  0  0  0  0  0  0  0  0
   -4.2225   -0.0091    0.0000 C   0  0  0  0  0  0  0  0  0  0  0  0
   -4.7168   -1.4254    0.0000 O   0  0  0  0  0  0  0  0  0  0  0  0
   -5.2019    1.1270    0.0000 O   0  0  0  0  0  0  0  0  0  0  0  0
  2  1  1  1
  2  3  1  0
  3  4  1  0
  4  5  1  0
  5  6  2  0
  6  7  1  0
  7  8  2  0
  8  9  1  0
  7 10  1  0
 10 11  1  0
 10 12  1  0
  2 13  1  0
 13 14  2  0
 13 15  1  0
  9  4  2  0
M  END
>  <rName>  (1111) 
Phe_CHF2

>  <PQ_SYMBOL>  (1111) 
Phe_CHF2

>  <FULL_NAME>  (1111) 
4-(difluoromethyl)-L-phenylalanine

>  <IUPAC_CONDENSED>  (1111) 
Phe(CHF2)

>  <IUPAC>  (1111) 
(2S)-2-amino-3-(4-(difluoromethyl)phenyl)propanoic acid

>  <TYPE>  (1111) 
Backbone

>  <CLASS>  (1111) 
alpha

>  <ANALOG>  (1111) 
Phe

>  <MOL_WT>  (1111) 
215.19899999999996

>  <LOGP>  (1111) 
1.5786000000000002

>  <TPSA>  (1111) 
63.32000000000001

>  <POPULARITY>  (1111) 
7.6

>  <PROTECTED>  (1111) 
TRUE

>  <SMILES>  (1111) 
N[C@@H](Cc1(ccc(cc1)C(F)F))C(=O)O

>  <INCHIKEY>  (1111) 
WAAULDXYXPJAKD-QMMMGPOBSA-N

$$$$
NEt-F
     RDKit          2D

 14 14  0  0  0  0  0  0  0  0999 V2000
   -1.1639    0.9643    0.0000 N   0  0  0  0  0  0  0  0  0  0  0  0
   -2.4277    1.7722    0.0000 C   0  0  0  0  0  0  0  0  0  0  0  0
   -2.3599    3.2707    0.0000 C   0  0  0  0  0  0  0  0  0  0  0  0
   -1.2317   -0.5342    0.0000 C   0  0  0  0  0  0  0  0  0  0  0  0
    0.0322   -1.3421    0.0000 C   0  0  0  0  0  0  0  0  0  0  0  0
    1.3638   -0.6516    0.0000 C   0  0  0  0  0  0  0  0  0  0  0  0
    1.4316    0.8469    0.0000 C   0  0  0  0  0  0  0  0  0  0  0  0
    2.7632    1.5374    0.0000 C   0  0  0  0  0  0  0  0  0  0  0  0
    4.0270    0.7295    0.0000 C   0  0  0  0  0  0  0  0  0  0  0  0
    3.9592   -0.7690    0.0000 C   0  0  0  0  0  0  0  0  0  0  0  0
    2.6276   -1.4595    0.0000 C   0  0  0  0  0  0  0  0  0  0  0  0
   -2.5633   -1.2247    0.0000 C   0  0  0  0  0  0  0  0  0  0  0  0
   -2.6311   -2.7232    0.0000 O   0  0  0  0  0  0  0  0  0  0  0  0
   -3.8271   -0.4167    0.0000 O   0  0  0  0  0  0  0  0  0  0  0  0
  1  2  1  0
  2  3  1  0
  1  4  1  0
  4  5  1  1
  5  6  1  0
  6  7  2  0
  7  8  1  0
  8  9  2  0
  9 10  1  0
 10 11  2  0
  4 12  1  0
 12 13  2  0
 12 14  1  0
 11  6  1  0
M  END
>  <rName>  (1112) 
NEt-F

>  <PQ_SYMBOL>  (1112) 
NEt-F

>  <FULL_NAME>  (1112) 
N-ethyl-L-phenylalanine

>  <IUPAC_CONDENSED>  (1112) 
Et-Phe

>  <IUPAC>  (1112) 
(2S)-2-(ethylamino)-3-phenylpropanoic acid

>  <TYPE>  (1112) 
Backbone

>  <CLASS>  (1112) 
alpha

>  <ANALOG>  (1112) 
Phe

>  <MOL_WT>  (1112) 
193.24599999999998

>  <LOGP>  (1112) 
1.2918

>  <TPSA>  (1112) 
49.33

>  <POPULARITY>  (1112) 
17

>  <PROTECTED>  (1112) 
TRUE

>  <SMILES>  (1112) 
N(CC)[C@@H](Cc1(ccccc1))C(=O)O

>  <INCHIKEY>  (1112) 
ZHLKFJCNKZEBNG-JTQLQIEISA-N

$$$$
NBn4Cl-G
     RDKit          2D

 13 13  0  0  0  0  0  0  0  0999 V2000
   -1.6537   -0.1855    0.0000 N   0  0  0  0  0  0  0  0  0  0  0  0
   -0.4997   -1.1437    0.0000 C   0  0  0  0  0  0  0  0  0  0  0  0
    0.9072   -0.6234    0.0000 C   0  0  0  0  0  0  0  0  0  0  0  0
    1.1600    0.8552    0.0000 C   0  0  0  0  0  0  0  0  0  0  0  0
    2.5669    1.3755    0.0000 C   0  0  0  0  0  0  0  0  0  0  0  0
    3.7209    0.4173    0.0000 C   0  0  0  0  0  0  0  0  0  0  0  0
    5.1278    0.9376    0.0000 Cl  0  0  0  0  0  0  0  0  0  0  0  0
    3.4681   -1.0612    0.0000 C   0  0  0  0  0  0  0  0  0  0  0  0
    2.0612   -1.5816    0.0000 C   0  0  0  0  0  0  0  0  0  0  0  0
   -3.0606   -0.7058    0.0000 C   0  0  0  0  0  0  0  0  0  0  0  0
   -4.2146    0.2524    0.0000 C   0  0  0  0  0  0  0  0  0  0  0  0
   -3.9618    1.7310    0.0000 O   0  0  0  0  0  0  0  0  0  0  0  0
   -5.6215   -0.2679    0.0000 O   0  0  0  0  0  0  0  0  0  0  0  0
  1  2  1  0
  2  3  1  0
  3  4  1  0
  4  5  2  0
  5  6  1  0
  6  7  1  0
  6  8  2  0
  8  9  1  0
  1 10  1  0
 10 11  1  0
 11 12  2  0
 11 13  1  0
  9  3  2  0
M  END
>  <rName>  (1113) 
NBn4Cl-G

>  <PQ_SYMBOL>  (1113) 
NBn4Cl-G

>  <FULL_NAME>  (1113) 
N-(4-chlorobenzyl)-glycine

>  <IUPAC_CONDENSED>  (1113) 
Bn(4-Cl)-Gly

>  <IUPAC>  (1113) 
2-(((4-chlorophenyl)methyl)amino)acetic acid

>  <TYPE>  (1113) 
Backbone

>  <CLASS>  (1113) 
alpha

>  <ANALOG>  (1113) 
Gly

>  <MOL_WT>  (1113) 
199.63699999999997

>  <LOGP>  (1113) 
1.5142

>  <TPSA>  (1113) 
49.33

>  <POPULARITY>  (1113) 
12.2

>  <PROTECTED>  (1113) 
TRUE

>  <SMILES>  (1113) 
N(Cc1(ccc(Cl)cc1))CC(=O)O

>  <INCHIKEY>  (1113) 
AEUCLXJGFMJQMP-UHFFFAOYSA-N

$$$$
Npyrid2ylmethyl-G
     RDKit          2D

 12 12  0  0  0  0  0  0  0  0999 V2000
   -1.2194   -0.1693    0.0000 N   0  0  0  0  0  0  0  0  0  0  0  0
   -0.0183   -1.0678    0.0000 C   0  0  0  0  0  0  0  0  0  0  0  0
    1.3604   -0.4769    0.0000 C   0  0  0  0  0  0  0  0  0  0  0  0
    1.5380    1.0126    0.0000 C   0  0  0  0  0  0  0  0  0  0  0  0
    2.9167    1.6035    0.0000 C   0  0  0  0  0  0  0  0  0  0  0  0
    4.1178    0.7050    0.0000 C   0  0  0  0  0  0  0  0  0  0  0  0
    3.9402   -0.7845    0.0000 C   0  0  0  0  0  0  0  0  0  0  0  0
    2.5615   -1.3754    0.0000 N   0  0  0  0  0  0  0  0  0  0  0  0
   -2.5981   -0.7603    0.0000 C   0  0  0  0  0  0  0  0  0  0  0  0
   -3.7992    0.1382    0.0000 C   0  0  0  0  0  0  0  0  0  0  0  0
   -3.6216    1.6277    0.0000 O   0  0  0  0  0  0  0  0  0  0  0  0
   -5.1779   -0.4527    0.0000 O   0  0  0  0  0  0  0  0  0  0  0  0
  1  2  1  0
  2  3  1  0
  3  4  2  0
  4  5  1  0
  5  6  2  0
  6  7  1  0
  7  8  2  0
  1  9  1  0
  9 10  1  0
 10 11  2  0
 10 12  1  0
  8  3  1  0
M  END
>  <rName>  (1114) 
Npyrid2ylmethyl-G

>  <PQ_SYMBOL>  (1114) 
Npyrid2ylmethyl-G

>  <FULL_NAME>  (1114) 
N-pyrid-2-ylmethyl-glycine

>  <IUPAC_CONDENSED>  (1114) 
pyrid-2-ylmethyl-Gly

>  <IUPAC>  (1114) 
2-(((pyridin-2-yl)methyl)amino)acetic acid

>  <TYPE>  (1114) 
Backbone

>  <CLASS>  (1114) 
alpha

>  <ANALOG>  (1114) 
Gly

>  <MOL_WT>  (1114) 
166.17999999999998

>  <LOGP>  (1114) 
0.25579999999999975

>  <TPSA>  (1114) 
62.22

>  <POPULARITY>  (1114) 
11.7

>  <PROTECTED>  (1114) 
TRUE

>  <SMILES>  (1114) 
N(Cc1(ccccn1))CC(=O)O

>  <INCHIKEY>  (1114) 
MDMCWJVDDJDEGI-UHFFFAOYSA-N

$$$$
hPhe_2Cl
     RDKit          2D

 14 14  0  0  0  0  0  0  0  0999 V2000
   -2.7345   -1.9034    0.0000 N   0  0  0  0  0  0  0  0  0  0  0  0
   -2.5673   -0.4128    0.0000 C   0  0  0  0  0  0  0  0  0  0  0  0
   -1.1928    0.1877    0.0000 C   0  0  0  0  0  0  0  0  0  0  0  0
    0.0146   -0.7024    0.0000 C   0  0  0  0  0  0  0  0  0  0  0  0
    1.3891   -0.1019    0.0000 C   0  0  0  0  0  0  0  0  0  0  0  0
    1.5563    1.3887    0.0000 C   0  0  0  0  0  0  0  0  0  0  0  0
    2.9309    1.9892    0.0000 C   0  0  0  0  0  0  0  0  0  0  0  0
    4.1382    1.0991    0.0000 C   0  0  0  0  0  0  0  0  0  0  0  0
    3.9710   -0.3916    0.0000 C   0  0  0  0  0  0  0  0  0  0  0  0
    2.5965   -0.9921    0.0000 C   0  0  0  0  0  0  0  0  0  0  0  0
    2.4292   -2.4827    0.0000 Cl  0  0  0  0  0  0  0  0  0  0  0  0
   -3.7746    0.4773    0.0000 C   0  0  0  0  0  0  0  0  0  0  0  0
   -3.6074    1.9680    0.0000 O   0  0  0  0  0  0  0  0  0  0  0  0
   -5.1492   -0.1232    0.0000 O   0  0  0  0  0  0  0  0  0  0  0  0
  2  1  1  6
  2  3  1  0
  3  4  1  0
  4  5  1  0
  5  6  2  0
  6  7  1  0
  7  8  2  0
  8  9  1  0
  9 10  2  0
 10 11  1  0
  2 12  1  0
 12 13  2  0
 12 14  1  0
 10  5  1  0
M  END
>  <rName>  (1115) 
hPhe_2Cl

>  <PQ_SYMBOL>  (1115) 
hPhe_2Cl

>  <FULL_NAME>  (1115) 
2-chloro-L-homophenylalanine

>  <IUPAC_CONDENSED>  (1115) 
hPhe(2-Cl)

>  <IUPAC>  (1115) 
(2S)-2-amino-4-(2-chlorophenyl)butanoic acid

>  <TYPE>  (1115) 
Backbone

>  <CLASS>  (1115) 
alpha

>  <ANALOG>  (1115) 
Phe

>  <MOL_WT>  (1115) 
213.66399999999996

>  <LOGP>  (1115) 
1.6844999999999999

>  <TPSA>  (1115) 
63.32000000000001

>  <POPULARITY>  (1115) 
5.3

>  <PROTECTED>  (1115) 
TRUE

>  <SMILES>  (1115) 
N[C@@H](CCc1(ccccc1Cl))C(=O)O

>  <INCHIKEY>  (1115) 
ZYQDUOLAVXZHAL-VIFPVBQESA-N

$$$$
hPhe_3Cl
     RDKit          2D

 14 14  0  0  0  0  0  0  0  0999 V2000
   -2.9179   -2.0082    0.0000 N   0  0  0  0  0  0  0  0  0  0  0  0
   -2.7604   -0.5165    0.0000 C   0  0  0  0  0  0  0  0  0  0  0  0
   -1.3898    0.0929    0.0000 C   0  0  0  0  0  0  0  0  0  0  0  0
   -0.1767   -0.7894    0.0000 C   0  0  0  0  0  0  0  0  0  0  0  0
    1.1939   -0.1800    0.0000 C   0  0  0  0  0  0  0  0  0  0  0  0
    1.3515    1.3117    0.0000 C   0  0  0  0  0  0  0  0  0  0  0  0
    2.7221    1.9211    0.0000 C   0  0  0  0  0  0  0  0  0  0  0  0
    3.9352    1.0388    0.0000 C   0  0  0  0  0  0  0  0  0  0  0  0
    3.7777   -0.4529    0.0000 C   0  0  0  0  0  0  0  0  0  0  0  0
    4.9907   -1.3352    0.0000 Cl  0  0  0  0  0  0  0  0  0  0  0  0
    2.4070   -1.0623    0.0000 C   0  0  0  0  0  0  0  0  0  0  0  0
   -3.9735    0.3658    0.0000 C   0  0  0  0  0  0  0  0  0  0  0  0
   -3.8159    1.8575    0.0000 O   0  0  0  0  0  0  0  0  0  0  0  0
   -5.3441   -0.2436    0.0000 O   0  0  0  0  0  0  0  0  0  0  0  0
  2  1  1  6
  2  3  1  0
  3  4  1  0
  4  5  1  0
  5  6  2  0
  6  7  1  0
  7  8  2  0
  8  9  1  0
  9 10  1  0
  9 11  2  0
  2 12  1  0
 12 13  2  0
 12 14  1  0
 11  5  1  0
M  END
>  <rName>  (1116) 
hPhe_3Cl

>  <PQ_SYMBOL>  (1116) 
hPhe_3Cl

>  <FULL_NAME>  (1116) 
3-chloro-L-homophenylalanine

>  <IUPAC_CONDENSED>  (1116) 
hPhe(3-Cl)

>  <IUPAC>  (1116) 
(2S)-2-amino-4-(3-chlorophenyl)butanoic acid

>  <TYPE>  (1116) 
Backbone

>  <CLASS>  (1116) 
alpha

>  <ANALOG>  (1116) 
Phe

>  <MOL_WT>  (1116) 
213.664

>  <LOGP>  (1116) 
1.6844999999999999

>  <TPSA>  (1116) 
63.32000000000001

>  <POPULARITY>  (1116) 
5.7

>  <PROTECTED>  (1116) 
TRUE

>  <SMILES>  (1116) 
N[C@@H](CCc1(cccc(Cl)c1))C(=O)O

>  <INCHIKEY>  (1116) 
XHVNXVGEFJHTMY-VIFPVBQESA-N

$$$$
hPhe_4Cl
     RDKit          2D

 14 14  0  0  0  0  0  0  0  0999 V2000
   -3.1731   -1.8740    0.0000 N   0  0  0  0  0  0  0  0  0  0  0  0
   -2.8476   -0.4097    0.0000 C   0  0  0  0  0  0  0  0  0  0  0  0
   -1.4168    0.0405    0.0000 C   0  0  0  0  0  0  0  0  0  0  0  0
   -0.3114   -0.9735    0.0000 C   0  0  0  0  0  0  0  0  0  0  0  0
    1.1194   -0.5232    0.0000 C   0  0  0  0  0  0  0  0  0  0  0  0
    1.4449    0.9411    0.0000 C   0  0  0  0  0  0  0  0  0  0  0  0
    2.8757    1.3913    0.0000 C   0  0  0  0  0  0  0  0  0  0  0  0
    3.9810    0.3773    0.0000 C   0  0  0  0  0  0  0  0  0  0  0  0
    5.4119    0.8276    0.0000 Cl  0  0  0  0  0  0  0  0  0  0  0  0
    3.6556   -1.0870    0.0000 C   0  0  0  0  0  0  0  0  0  0  0  0
    2.2247   -1.5372    0.0000 C   0  0  0  0  0  0  0  0  0  0  0  0
   -3.9530    0.6043    0.0000 C   0  0  0  0  0  0  0  0  0  0  0  0
   -3.6275    2.0685    0.0000 O   0  0  0  0  0  0  0  0  0  0  0  0
   -5.3838    0.1540    0.0000 O   0  0  0  0  0  0  0  0  0  0  0  0
  2  1  1  6
  2  3  1  0
  3  4  1  0
  4  5  1  0
  5  6  1  0
  6  7  2  0
  7  8  1  0
  8  9  1  0
  8 10  2  0
 10 11  1  0
  2 12  1  0
 12 13  2  0
 12 14  1  0
 11  5  2  0
M  END
>  <rName>  (1117) 
hPhe_4Cl

>  <PQ_SYMBOL>  (1117) 
hPhe_4Cl

>  <FULL_NAME>  (1117) 
4-chloro-L-homophenylalanine

>  <IUPAC_CONDENSED>  (1117) 
hPhe(4-Cl)

>  <IUPAC>  (1117) 
(2S)-2-amino-4-(4-chlorophenyl)butanoic acid

>  <TYPE>  (1117) 
Backbone

>  <CLASS>  (1117) 
alpha

>  <ANALOG>  (1117) 
Phe

>  <MOL_WT>  (1117) 
213.664

>  <LOGP>  (1117) 
1.6844999999999999

>  <TPSA>  (1117) 
63.32000000000001

>  <POPULARITY>  (1117) 
6.2

>  <PROTECTED>  (1117) 
TRUE

>  <SMILES>  (1117) 
N[C@@H](CCc1(ccc(Cl)cc1))C(=O)O

>  <INCHIKEY>  (1117) 
AQUBLNVPEAFNGD-VIFPVBQESA-N

$$$$
Hse_Et
     RDKit          2D

 10  9  0  0  0  0  0  0  0  0999 V2000
   -1.4166   -1.8843    0.0000 N   0  0  0  0  0  0  0  0  0  0  0  0
   -1.4265   -0.3844    0.0000 C   0  0  0  0  0  0  0  0  0  0  0  0
   -0.1324    0.3741    0.0000 C   0  0  0  0  0  0  0  0  0  0  0  0
    1.1716   -0.3673    0.0000 C   0  0  0  0  0  0  0  0  0  0  0  0
    2.4657    0.3912    0.0000 O   0  0  0  0  0  0  0  0  0  0  0  0
    3.7696   -0.3503    0.0000 C   0  0  0  0  0  0  0  0  0  0  0  0
    5.0637    0.4082    0.0000 C   0  0  0  0  0  0  0  0  0  0  0  0
   -2.7304    0.3571    0.0000 C   0  0  0  0  0  0  0  0  0  0  0  0
   -2.7402    1.8571    0.0000 O   0  0  0  0  0  0  0  0  0  0  0  0
   -4.0245   -0.4014    0.0000 O   0  0  0  0  0  0  0  0  0  0  0  0
  2  1  1  6
  2  3  1  0
  3  4  1  0
  4  5  1  0
  5  6  1  0
  6  7  1  0
  2  8  1  0
  8  9  2  0
  8 10  1  0
M  END
>  <rName>  (1118) 
Hse_Et

>  <PQ_SYMBOL>  (1118) 
Hse_Et

>  <FULL_NAME>  (1118) 
O-ethyl-L-homoserine

>  <IUPAC_CONDENSED>  (1118) 
Hse(Et)

>  <IUPAC>  (1118) 
(2S)-2-amino-4-ethoxybutanoic acid

>  <TYPE>  (1118) 
Backbone

>  <CLASS>  (1118) 
alpha

>  <ANALOG>  (1118) 
Ser

>  <MOL_WT>  (1118) 
147.174

>  <LOGP>  (1118) 
-0.17510000000000053

>  <TPSA>  (1118) 
72.55

>  <POPULARITY>  (1118) 
10.1

>  <PROTECTED>  (1118) 
TRUE

>  <SMILES>  (1118) 
N[C@@H](CCOCC)C(=O)O

>  <INCHIKEY>  (1118) 
YCSFMOVBARTLBW-YFKPBYRVSA-N

$$$$
Hyp_Et
     RDKit          2D

 11 11  0  0  0  0  0  0  0  0999 V2000
    1.1920   -1.6300    0.0000 N   0  0  0  0  0  0  0  0  0  0  0  0
    1.3323   -0.1366    0.0000 C   0  0  0  0  0  0  0  0  0  0  0  0
   -0.0446    0.4584    0.0000 C   0  0  0  0  0  0  0  0  0  0  0  0
   -1.0360   -0.6674    0.0000 C   0  0  0  0  0  0  0  0  0  0  0  0
   -2.5294   -0.5270    0.0000 O   0  0  0  0  0  0  0  0  0  0  0  0
   -3.1546    0.8365    0.0000 C   0  0  0  0  0  0  0  0  0  0  0  0
   -4.6480    0.9768    0.0000 C   0  0  0  0  0  0  0  0  0  0  0  0
   -0.2717   -1.9580    0.0000 C   0  0  0  0  0  0  0  0  0  0  0  0
    2.6230    0.6277    0.0000 C   0  0  0  0  0  0  0  0  0  0  0  0
    2.6065    2.1276    0.0000 O   0  0  0  0  0  0  0  0  0  0  0  0
    3.9303   -0.1079    0.0000 O   0  0  0  0  0  0  0  0  0  0  0  0
  1  2  1  0
  2  3  1  0
  3  4  1  0
  4  5  1  6
  5  6  1  0
  6  7  1  0
  4  8  1  0
  2  9  1  1
  9 10  2  0
  9 11  1  0
  8  1  1  0
M  END
>  <rName>  (1119) 
Hyp_Et

>  <PQ_SYMBOL>  (1119) 
Hyp_Et

>  <FULL_NAME>  (1119) 
(4R)-4-(ethyloxy)-L-proline

>  <IUPAC_CONDENSED>  (1119) 
Hyp(Et)

>  <IUPAC>  (1119) 
(2S,4R)-4-ethoxypyrrolidine-2-carboxylic acid

>  <TYPE>  (1119) 
Backbone

>  <CLASS>  (1119) 
alpha

>  <ANALOG>  (1119) 
Pro

>  <MOL_WT>  (1119) 
159.185

>  <LOGP>  (1119) 
-0.1620000000000002

>  <TPSA>  (1119) 
58.56

>  <POPULARITY>  (1119) 
12.5

>  <PROTECTED>  (1119) 
TRUE

>  <SMILES>  (1119) 
N1[C@@H](C[C@@H](OCC)C1)C(=O)O

>  <INCHIKEY>  (1119) 
UGNGLHKEESUVLW-RITPCOANSA-N

$$$$
Lys_Tfa
     RDKit          2D

 16 15  0  0  0  0  0  0  0  0999 V2000
    4.2348   -1.8455    0.0000 N   0  0  0  0  0  0  0  0  0  0  0  0
    4.2244   -0.3456    0.0000 C   0  0  0  0  0  0  0  0  0  0  0  0
    2.9202    0.3954    0.0000 C   0  0  0  0  0  0  0  0  0  0  0  0
    1.6264   -0.3637    0.0000 C   0  0  0  0  0  0  0  0  0  0  0  0
    0.3221    0.3773    0.0000 C   0  0  0  0  0  0  0  0  0  0  0  0
   -0.9716   -0.3818    0.0000 C   0  0  0  0  0  0  0  0  0  0  0  0
   -2.2759    0.3591    0.0000 N   0  0  0  0  0  0  0  0  0  0  0  0
   -3.5697   -0.3999    0.0000 C   0  0  0  0  0  0  0  0  0  0  0  0
   -3.5592   -1.8999    0.0000 O   0  0  0  0  0  0  0  0  0  0  0  0
   -4.8739    0.3410    0.0000 C   0  0  0  0  0  0  0  0  0  0  0  0
   -6.1781    1.0820    0.0000 F   0  0  0  0  0  0  0  0  0  0  0  0
   -5.6148   -0.9632    0.0000 F   0  0  0  0  0  0  0  0  0  0  0  0
   -4.1330    1.6453    0.0000 F   0  0  0  0  0  0  0  0  0  0  0  0
    5.5182    0.4135    0.0000 C   0  0  0  0  0  0  0  0  0  0  0  0
    5.5077    1.9134    0.0000 O   0  0  0  0  0  0  0  0  0  0  0  0
    6.8224   -0.3275    0.0000 O   0  0  0  0  0  0  0  0  0  0  0  0
  2  1  1  1
  2  3  1  0
  3  4  1  0
  4  5  1  0
  5  6  1  0
  6  7  1  0
  7  8  1  0
  8  9  2  0
  8 10  1  0
 10 11  1  0
 10 12  1  0
 10 13  1  0
  2 14  1  0
 14 15  2  0
 14 16  1  0
M  END
>  <rName>  (1120) 
Lys_Tfa

>  <PQ_SYMBOL>  (1120) 
Lys_Tfa

>  <FULL_NAME>  (1120) 
N6-trifluoroacetyl-L-lysine

>  <IUPAC_CONDENSED>  (1120) 
Lys(Tfa)

>  <IUPAC>  (1120) 
(2S)-2-amino-6-(trifluoromethylcarbonylamino)hexanoic acid

>  <TYPE>  (1120) 
Backbone

>  <CLASS>  (1120) 
alpha

>  <ANALOG>  (1120) 
Lys

>  <MOL_WT>  (1120) 
242.19699999999997

>  <LOGP>  (1120) 
0.24709999999999943

>  <TPSA>  (1120) 
92.42

>  <POPULARITY>  (1120) 
10.7

>  <PROTECTED>  (1120) 
TRUE

>  <SMILES>  (1120) 
N[C@@H](CCCCNC(=O)C(F)(F)F)C(=O)O

>  <INCHIKEY>  (1120) 
PZZHRSVBHRVIMI-YFKPBYRVSA-N

$$$$
D-Asn_Me2
     RDKit          2D

 11 10  0  0  0  0  0  0  0  0999 V2000
    1.2990    1.8409    0.0000 N   0  0  0  0  0  0  0  0  0  0  0  0
    1.2990    0.3409    0.0000 C   0  0  0  0  0  0  0  0  0  0  0  0
   -0.0000   -0.4091    0.0000 C   0  0  0  0  0  0  0  0  0  0  0  0
   -1.2990    0.3409    0.0000 C   0  0  0  0  0  0  0  0  0  0  0  0
   -1.2990    1.8409    0.0000 O   0  0  0  0  0  0  0  0  0  0  0  0
   -2.5981   -0.4091    0.0000 N   0  0  0  0  0  0  0  0  0  0  0  0
   -3.8971    0.3409    0.0000 C   0  0  0  0  0  0  0  0  0  0  0  0
   -2.5981   -1.9091    0.0000 C   0  0  0  0  0  0  0  0  0  0  0  0
    2.5981   -0.4091    0.0000 C   0  0  0  0  0  0  0  0  0  0  0  0
    2.5981   -1.9091    0.0000 O   0  0  0  0  0  0  0  0  0  0  0  0
    3.8971    0.3409    0.0000 O   0  0  0  0  0  0  0  0  0  0  0  0
  2  1  1  1
  2  3  1  0
  3  4  1  0
  4  5  2  0
  4  6  1  0
  6  7  1  0
  6  8  1  0
  2  9  1  0
  9 10  2  0
  9 11  1  0
M  END
>  <rName>  (1121) 
D-Asn_Me2

>  <PQ_SYMBOL>  (1121) 
D-Asn_Me2

>  <FULL_NAME>  (1121) 
N4,N4-dimethyl-D-asparagine

>  <IUPAC_CONDENSED>  (1121) 
D-Asn(Me2)

>  <IUPAC>  (1121) 
(2R)-2-amino-3-(dimethylcarbamoyl)propanoic acid

>  <TYPE>  (1121) 
Backbone

>  <CLASS>  (1121) 
alpha

>  <ANALOG>  (1121) 
X

>  <MOL_WT>  (1121) 
160.173

>  <LOGP>  (1121) 
-1.1233999999999995

>  <TPSA>  (1121) 
83.63000000000001

>  <POPULARITY>  (1121) 
8.9

>  <PROTECTED>  (1121) 
TRUE

>  <SMILES>  (1121) 
N[C@H](CC(=O)N(C)C)C(=O)O

>  <INCHIKEY>  (1121) 
AHEBZPSPUGRPFZ-SCSAIBSYSA-N

$$$$
Gln_Me2
     RDKit          2D

 12 11  0  0  0  0  0  0  0  0999 V2000
    1.8826   -1.9413    0.0000 N   0  0  0  0  0  0  0  0  0  0  0  0
    1.9344   -0.4422    0.0000 C   0  0  0  0  0  0  0  0  0  0  0  0
    0.6621    0.3523    0.0000 C   0  0  0  0  0  0  0  0  0  0  0  0
   -0.6621   -0.3523    0.0000 C   0  0  0  0  0  0  0  0  0  0  0  0
   -1.9344    0.4422    0.0000 C   0  0  0  0  0  0  0  0  0  0  0  0
   -1.8826    1.9413    0.0000 O   0  0  0  0  0  0  0  0  0  0  0  0
   -3.2586   -0.2625    0.0000 N   0  0  0  0  0  0  0  0  0  0  0  0
   -4.5309    0.5320    0.0000 C   0  0  0  0  0  0  0  0  0  0  0  0
   -3.3105   -1.7616    0.0000 C   0  0  0  0  0  0  0  0  0  0  0  0
    3.2586    0.2625    0.0000 C   0  0  0  0  0  0  0  0  0  0  0  0
    3.3105    1.7616    0.0000 O   0  0  0  0  0  0  0  0  0  0  0  0
    4.5309   -0.5320    0.0000 O   0  0  0  0  0  0  0  0  0  0  0  0
  2  1  1  1
  2  3  1  0
  3  4  1  0
  4  5  1  0
  5  6  2  0
  5  7  1  0
  7  8  1  0
  7  9  1  0
  2 10  1  0
 10 11  2  0
 10 12  1  0
M  END
>  <rName>  (1122) 
Gln_Me2

>  <PQ_SYMBOL>  (1122) 
Gln_Me2

>  <FULL_NAME>  (1122) 
N5,N5-dimethyl-L-glutamine

>  <IUPAC_CONDENSED>  (1122) 
Gln(Me2)

>  <IUPAC>  (1122) 
(2S)-2-amino-4-(dimethylcarbamoyl)butanoic acid

>  <TYPE>  (1122) 
Backbone

>  <CLASS>  (1122) 
alpha

>  <ANALOG>  (1122) 
Lys

>  <MOL_WT>  (1122) 
174.2

>  <LOGP>  (1122) 
-0.7332999999999998

>  <TPSA>  (1122) 
83.63000000000001

>  <POPULARITY>  (1122) 
14.8

>  <PROTECTED>  (1122) 
TRUE

>  <SMILES>  (1122) 
N[C@@H](CCC(=O)N(C)C)C(=O)O

>  <INCHIKEY>  (1122) 
SMWQVIPJGSEJPA-YFKPBYRVSA-N

$$$$
Ser_Pr
     RDKit          2D

 10  9  0  0  0  0  0  0  0  0999 V2000
   -1.4166   -1.8843    0.0000 N   0  0  0  0  0  0  0  0  0  0  0  0
   -1.4265   -0.3844    0.0000 C   0  0  0  0  0  0  0  0  0  0  0  0
   -0.1324    0.3741    0.0000 C   0  0  0  0  0  0  0  0  0  0  0  0
    1.1716   -0.3673    0.0000 O   0  0  0  0  0  0  0  0  0  0  0  0
    2.4657    0.3912    0.0000 C   0  0  0  0  0  0  0  0  0  0  0  0
    3.7696   -0.3503    0.0000 C   0  0  0  0  0  0  0  0  0  0  0  0
    5.0637    0.4082    0.0000 C   0  0  0  0  0  0  0  0  0  0  0  0
   -2.7304    0.3571    0.0000 C   0  0  0  0  0  0  0  0  0  0  0  0
   -2.7402    1.8571    0.0000 O   0  0  0  0  0  0  0  0  0  0  0  0
   -4.0245   -0.4014    0.0000 O   0  0  0  0  0  0  0  0  0  0  0  0
  2  1  1  6
  2  3  1  0
  3  4  1  0
  4  5  1  0
  5  6  1  0
  6  7  1  0
  2  8  1  0
  8  9  2  0
  8 10  1  0
M  END
>  <rName>  (1123) 
Ser_Pr

>  <PQ_SYMBOL>  (1123) 
Ser_Pr

>  <FULL_NAME>  (1123) 
O-propyl-L-serine

>  <IUPAC_CONDENSED>  (1123) 
Ser(Pr)

>  <IUPAC>  (1123) 
(2S)-2-amino-3-propoxypropanoic acid

>  <TYPE>  (1123) 
Backbone

>  <CLASS>  (1123) 
alpha

>  <ANALOG>  (1123) 
Ser

>  <MOL_WT>  (1123) 
147.174

>  <LOGP>  (1123) 
-0.17510000000000053

>  <TPSA>  (1123) 
72.55

>  <POPULARITY>  (1123) 
11.7

>  <PROTECTED>  (1123) 
TRUE

>  <SMILES>  (1123) 
N[C@@H](COCCC)C(=O)O

>  <INCHIKEY>  (1123) 
YLVYZXAQMZHQSE-YFKPBYRVSA-N

$$$$
NMe-Tza
     RDKit          2D

 12 12  0  0  0  0  0  0  0  0999 V2000
   -0.9097    1.3884    0.0000 N   0  0  0  0  0  0  0  0  0  0  0  0
   -2.0799    2.3268    0.0000 C   0  0  0  0  0  0  0  0  0  0  0  0
   -1.1374   -0.0943    0.0000 C   0  0  0  0  0  0  0  0  0  0  0  0
    0.0327   -1.0328    0.0000 C   0  0  0  0  0  0  0  0  0  0  0  0
    1.4305   -0.4886    0.0000 C   0  0  0  0  0  0  0  0  0  0  0  0
    2.6924   -1.2997    0.0000 C   0  0  0  0  0  0  0  0  0  0  0  0
    3.8536   -0.3502    0.0000 S   0  0  0  0  0  0  0  0  0  0  0  0
    3.3095    1.0476    0.0000 C   0  0  0  0  0  0  0  0  0  0  0  0
    1.8120    0.9621    0.0000 N   0  0  0  0  0  0  0  0  0  0  0  0
   -2.5353   -0.6384    0.0000 C   0  0  0  0  0  0  0  0  0  0  0  0
   -2.7630   -2.1210    0.0000 O   0  0  0  0  0  0  0  0  0  0  0  0
   -3.7054    0.3001    0.0000 O   0  0  0  0  0  0  0  0  0  0  0  0
  1  2  1  0
  1  3  1  0
  3  4  1  1
  4  5  1  0
  5  6  2  0
  6  7  1  0
  7  8  1  0
  8  9  2  0
  3 10  1  0
 10 11  2  0
 10 12  1  0
  9  5  1  0
M  END
>  <rName>  (1124) 
NMe-Tza

>  <PQ_SYMBOL>  (1124) 
NMe-Tza

>  <FULL_NAME>  (1124) 
N-methyl-L-thiazolylalanine

>  <IUPAC_CONDENSED>  (1124) 
Me-Tza

>  <IUPAC>  (1124) 
(2S)-2-(methylamino)-3-(thiazol-4-yl)propanoic acid

>  <TYPE>  (1124) 
Backbone

>  <CLASS>  (1124) 
alpha

>  <ANALOG>  (1124) 
Phe

>  <MOL_WT>  (1124) 
186.23599999999996

>  <LOGP>  (1124) 
0.3581999999999996

>  <TPSA>  (1124) 
62.22

>  <POPULARITY>  (1124) 
7.8

>  <PROTECTED>  (1124) 
TRUE

>  <SMILES>  (1124) 
N(C)[C@@H](Cc1(cscn1))C(=O)O

>  <INCHIKEY>  (1124) 
SJJJQDIGKIMGTG-LURJTMIESA-N

$$$$
Tyr_3F
     RDKit          2D

 14 14  0  0  0  0  0  0  0  0999 V2000
   -2.0094    1.6916    0.0000 N   0  0  0  0  0  0  0  0  0  0  0  0
   -2.3243    0.2250    0.0000 C   0  0  0  0  0  0  0  0  0  0  0  0
   -1.2116   -0.7809    0.0000 C   0  0  0  0  0  0  0  0  0  0  0  0
    0.2159   -0.3203    0.0000 C   0  0  0  0  0  0  0  0  0  0  0  0
    0.5308    1.1463    0.0000 C   0  0  0  0  0  0  0  0  0  0  0  0
    1.9583    1.6069    0.0000 C   0  0  0  0  0  0  0  0  0  0  0  0
    3.0710    0.6009    0.0000 C   0  0  0  0  0  0  0  0  0  0  0  0
    4.4985    1.0615    0.0000 O   0  0  0  0  0  0  0  0  0  0  0  0
    2.7561   -0.8657    0.0000 C   0  0  0  0  0  0  0  0  0  0  0  0
    3.8688   -1.8716    0.0000 F   0  0  0  0  0  0  0  0  0  0  0  0
    1.3286   -1.3263    0.0000 C   0  0  0  0  0  0  0  0  0  0  0  0
   -3.7518   -0.2356    0.0000 C   0  0  0  0  0  0  0  0  0  0  0  0
   -4.0666   -1.7022    0.0000 O   0  0  0  0  0  0  0  0  0  0  0  0
   -4.8644    0.7704    0.0000 O   0  0  0  0  0  0  0  0  0  0  0  0
  2  1  1  1
  2  3  1  0
  3  4  1  0
  4  5  1  0
  5  6  2  0
  6  7  1  0
  7  8  1  0
  7  9  2  0
  9 10  1  0
  9 11  1  0
  2 12  1  0
 12 13  2  0
 12 14  1  0
 11  4  2  0
M  END
>  <rName>  (1125) 
Tyr_3F

>  <PQ_SYMBOL>  (1125) 
Tyr_3F

>  <FULL_NAME>  (1125) 
3-fluoro-L-tyrosine

>  <IUPAC_CONDENSED>  (1125) 
Tyr(3-F)

>  <IUPAC>  (1125) 
(2S)-2-amino-3-(3-fluoro-4-hydroxyphenyl)propanoic acid

>  <TYPE>  (1125) 
Backbone

>  <CLASS>  (1125) 
alpha

>  <ANALOG>  (1125) 
Tyr

>  <MOL_WT>  (1125) 
199.18099999999995

>  <LOGP>  (1125) 
0.48570000000000013

>  <TPSA>  (1125) 
83.55

>  <POPULARITY>  (1125) 
19.3

>  <PROTECTED>  (1125) 
TRUE

>  <SMILES>  (1125) 
N[C@@H](Cc1(ccc(O)c(F)c1))C(=O)O

>  <INCHIKEY>  (1125) 
VIIAUOZUUGXERI-ZETCQYMHSA-N

$$$$
Phe_4OCHF2
     RDKit          2D

 16 16  0  0  0  0  0  0  0  0999 V2000
   -2.8646    1.6700    0.0000 N   0  0  0  0  0  0  0  0  0  0  0  0
   -3.2013    0.2083    0.0000 C   0  0  0  0  0  0  0  0  0  0  0  0
   -2.1038   -0.8141    0.0000 C   0  0  0  0  0  0  0  0  0  0  0  0
   -0.6696   -0.3749    0.0000 C   0  0  0  0  0  0  0  0  0  0  0  0
   -0.3329    1.0868    0.0000 C   0  0  0  0  0  0  0  0  0  0  0  0
    1.1014    1.5261    0.0000 C   0  0  0  0  0  0  0  0  0  0  0  0
    2.1989    0.5036    0.0000 C   0  0  0  0  0  0  0  0  0  0  0  0
    3.6332    0.9429    0.0000 O   0  0  0  0  0  0  0  0  0  0  0  0
    4.7307   -0.0796    0.0000 C   0  0  0  0  0  0  0  0  0  0  0  0
    6.1649    0.3597    0.0000 F   0  0  0  0  0  0  0  0  0  0  0  0
    4.3940   -1.5413    0.0000 F   0  0  0  0  0  0  0  0  0  0  0  0
    1.8622   -0.9581    0.0000 C   0  0  0  0  0  0  0  0  0  0  0  0
    0.4280   -1.3974    0.0000 C   0  0  0  0  0  0  0  0  0  0  0  0
   -4.6356   -0.2309    0.0000 C   0  0  0  0  0  0  0  0  0  0  0  0
   -4.9723   -1.6927    0.0000 O   0  0  0  0  0  0  0  0  0  0  0  0
   -5.7331    0.7915    0.0000 O   0  0  0  0  0  0  0  0  0  0  0  0
  2  1  1  1
  2  3  1  0
  3  4  1  0
  4  5  1  0
  5  6  2  0
  6  7  1  0
  7  8  1  0
  8  9  1  0
  9 10  1  0
  9 11  1  0
  7 12  2  0
 12 13  1  0
  2 14  1  0
 14 15  2  0
 14 16  1  0
 13  4  2  0
M  END
>  <rName>  (1126) 
Phe_4OCHF2

>  <PQ_SYMBOL>  (1126) 
Phe_4OCHF2

>  <FULL_NAME>  (1126) 
O4-(difluoromethyl)-L-tyrosine

>  <IUPAC_CONDENSED>  (1126) 
Tyr(CHF2)

>  <IUPAC>  (1126) 
(2S)-2-amino-3-(4-((difluoromethyl)oxy)phenyl)propanoic acid

>  <TYPE>  (1126) 
Backbone

>  <CLASS>  (1126) 
alpha

>  <ANALOG>  (1126) 
Tyr

>  <MOL_WT>  (1126) 
231.19799999999995

>  <LOGP>  (1126) 
1.2424000000000002

>  <TPSA>  (1126) 
72.55

>  <POPULARITY>  (1126) 
5.1

>  <PROTECTED>  (1126) 
TRUE

>  <SMILES>  (1126) 
N[C@@H](Cc1(ccc(OC(F)F)cc1))C(=O)O

>  <INCHIKEY>  (1126) 
ITFQXKAULLPDSW-QMMMGPOBSA-N

$$$$
bAla_3RCF3
     RDKit          2D

 10  9  0  0  0  0  0  0  0  0999 V2000
   -0.0629   -1.7674    0.0000 N   0  0  0  0  0  0  0  0  0  0  0  0
   -0.3412   -0.2934    0.0000 C   0  0  0  0  0  0  0  0  0  0  0  0
   -1.7568    0.2026    0.0000 C   0  0  0  0  0  0  0  0  0  0  0  0
   -3.1725    0.6986    0.0000 F   0  0  0  0  0  0  0  0  0  0  0  0
   -2.2528   -1.2130    0.0000 F   0  0  0  0  0  0  0  0  0  0  0  0
   -1.2608    1.6182    0.0000 F   0  0  0  0  0  0  0  0  0  0  0  0
    0.7961    0.6846    0.0000 C   0  0  0  0  0  0  0  0  0  0  0  0
    2.2118    0.1886    0.0000 C   0  0  0  0  0  0  0  0  0  0  0  0
    2.4900   -1.2854    0.0000 O   0  0  0  0  0  0  0  0  0  0  0  0
    3.3491    1.1666    0.0000 O   0  0  0  0  0  0  0  0  0  0  0  0
  2  1  1  6
  2  3  1  0
  3  4  1  0
  3  5  1  0
  3  6  1  0
  2  7  1  0
  7  8  1  0
  8  9  2  0
  8 10  1  0
M  END
>  <rName>  (1127) 
bAla_3RCF3

>  <PQ_SYMBOL>  (1127) 
bAla_3RCF3

>  <FULL_NAME>  (1127) 
(3S)-3-amino-4,4,4-trifluorobutanoic acid

>  <IUPAC_CONDENSED>  (1127) 
bAla(3R-CF3)

>  <IUPAC>  (1127) 
(3S)-3-amino-4,4,4-trifluorobutanoic acid

>  <TYPE>  (1127) 
Backbone

>  <CLASS>  (1127) 
beta

>  <ANALOG>  (1127) 
X

>  <MOL_WT>  (1127) 
157.091

>  <LOGP>  (1127) 
0.3507

>  <TPSA>  (1127) 
63.32000000000001

>  <POPULARITY>  (1127) 
6.4

>  <PROTECTED>  (1127) 
TRUE

>  <SMILES>  (1127) 
N[C@H](C(F)(F)F)CC(=O)O

>  <INCHIKEY>  (1127) 
XRXQOEWWPPJVII-REOHCLBHSA-N

$$$$
Dap_3RMe
     RDKit          2D

  8  7  0  0  0  0  0  0  0  0999 V2000
    0.0000   -2.0625    0.0000 N   0  0  0  0  0  0  0  0  0  0  0  0
    0.0000   -0.5625    0.0000 C   0  0  0  0  0  0  0  0  0  0  0  0
   -1.2990    0.1875    0.0000 C   0  0  0  0  0  0  0  0  0  0  0  0
   -2.5981   -0.5625    0.0000 C   0  0  0  0  0  0  0  0  0  0  0  0
   -1.2990    1.6875    0.0000 N   0  0  0  0  0  0  0  0  0  0  0  0
    1.2990    0.1875    0.0000 C   0  0  0  0  0  0  0  0  0  0  0  0
    1.2990    1.6875    0.0000 O   0  0  0  0  0  0  0  0  0  0  0  0
    2.5981   -0.5625    0.0000 O   0  0  0  0  0  0  0  0  0  0  0  0
  2  1  1  1
  2  3  1  0
  3  4  1  1
  3  5  1  0
  2  6  1  0
  6  7  2  0
  6  8  1  0
M  END
>  <rName>  (1128) 
Dap_3RMe

>  <PQ_SYMBOL>  (1128) 
Dap_3RMe

>  <FULL_NAME>  (1128) 
(2S,3R)-2,3-diaminobutanoic acid

>  <IUPAC_CONDENSED>  (1128) 
Dap(3R-Me)

>  <IUPAC>  (1128) 
(2S,3R)-2,3-diaminobutanoic acid

>  <TYPE>  (1128) 
Backbone

>  <CLASS>  (1128) 
alpha

>  <ANALOG>  (1128) 
X

>  <MOL_WT>  (1128) 
118.136

>  <LOGP>  (1128) 
-1.2544999999999995

>  <TPSA>  (1128) 
89.34

>  <POPULARITY>  (1128) 
15.8

>  <PROTECTED>  (1128) 
TRUE

>  <SMILES>  (1128) 
N[C@@H]([C@@H](C)N)C(=O)O

>  <INCHIKEY>  (1128) 
SXGMVGOVILIERA-GBXIJSLDSA-N

$$$$
bAla_3RMe
     RDKit          2D

  7  6  0  0  0  0  0  0  0  0999 V2000
   -1.2990    1.3929    0.0000 N   0  0  0  0  0  0  0  0  0  0  0  0
   -1.2990   -0.1071    0.0000 C   0  0  0  0  0  0  0  0  0  0  0  0
   -2.5981   -0.8571    0.0000 C   0  0  0  0  0  0  0  0  0  0  0  0
    0.0000   -0.8571    0.0000 C   0  0  0  0  0  0  0  0  0  0  0  0
    1.2990   -0.1071    0.0000 C   0  0  0  0  0  0  0  0  0  0  0  0
    1.2990    1.3929    0.0000 O   0  0  0  0  0  0  0  0  0  0  0  0
    2.5981   -0.8571    0.0000 O   0  0  0  0  0  0  0  0  0  0  0  0
  1  2  1  0
  2  3  1  1
  2  4  1  0
  4  5  1  0
  5  6  2  0
  5  7  1  0
M  END
>  <rName>  (1129) 
bAla_3RMe

>  <PQ_SYMBOL>  (1129) 
bAla_3RMe

>  <FULL_NAME>  (1129) 
D-3-aminobutyric acid

>  <IUPAC_CONDENSED>  (1129) 
bAla(3R-Me)

>  <IUPAC>  (1129) 
(3R)-3-aminobutanoic acid

>  <TYPE>  (1129) 
Backbone

>  <CLASS>  (1129) 
beta

>  <ANALOG>  (1129) 
Ala

>  <MOL_WT>  (1129) 
103.12099999999998

>  <LOGP>  (1129) 
-0.19170000000000004

>  <TPSA>  (1129) 
63.32000000000001

>  <POPULARITY>  (1129) 
18.8

>  <PROTECTED>  (1129) 
TRUE

>  <SMILES>  (1129) 
N[C@H](C)CC(=O)O

>  <INCHIKEY>  (1129) 
OQEBBZSWEGYTPG-GSVOUGTGSA-N

$$$$
NMe-bAla_3RMe
     RDKit          2D

  8  7  0  0  0  0  0  0  0  0999 V2000
    2.3370   -0.1514    0.0000 N   0  0  0  0  0  0  0  0  0  0  0  0
    2.7906    1.2784    0.0000 C   0  0  0  0  0  0  0  0  0  0  0  0
    0.8719   -0.4734    0.0000 C   0  0  0  0  0  0  0  0  0  0  0  0
    0.4183   -1.9031    0.0000 C   0  0  0  0  0  0  0  0  0  0  0  0
   -0.1394    0.6344    0.0000 C   0  0  0  0  0  0  0  0  0  0  0  0
   -1.6045    0.3124    0.0000 C   0  0  0  0  0  0  0  0  0  0  0  0
   -2.0581   -1.1174    0.0000 O   0  0  0  0  0  0  0  0  0  0  0  0
   -2.6158    1.4201    0.0000 O   0  0  0  0  0  0  0  0  0  0  0  0
  1  2  1  0
  1  3  1  0
  3  4  1  6
  3  5  1  0
  5  6  1  0
  6  7  2  0
  6  8  1  0
M  END
>  <rName>  (1130) 
NMe-bAla_3RMe

>  <PQ_SYMBOL>  (1130) 
NMe-bAla_3RMe

>  <FULL_NAME>  (1130) 
N-methyl-D-3-aminobutyric acid

>  <IUPAC_CONDENSED>  (1130) 
Me-bAla(3R-Me)

>  <IUPAC>  (1130) 
(3R)-3-(methylamino)butanoic acid

>  <TYPE>  (1130) 
Backbone

>  <CLASS>  (1130) 
beta

>  <ANALOG>  (1130) 
Ala

>  <MOL_WT>  (1130) 
117.14799999999998

>  <LOGP>  (1130) 
0.06899999999999967

>  <TPSA>  (1130) 
49.33

>  <POPULARITY>  (1130) 
17.4

>  <PROTECTED>  (1130) 
TRUE

>  <SMILES>  (1130) 
N(C)[C@H](C)CC(=O)O

>  <INCHIKEY>  (1130) 
VWQSQYOPIHNGBY-SCSAIBSYSA-N

$$$$
bAla_3REtPh
     RDKit          2D

 14 14  0  0  0  0  0  0  0  0999 V2000
   -2.1732   -1.6585    0.0000 N   0  0  0  0  0  0  0  0  0  0  0  0
   -1.8487   -0.1940    0.0000 C   0  0  0  0  0  0  0  0  0  0  0  0
   -0.4182    0.2573    0.0000 C   0  0  0  0  0  0  0  0  0  0  0  0
    0.6879   -0.7560    0.0000 C   0  0  0  0  0  0  0  0  0  0  0  0
    2.1184   -0.3047    0.0000 C   0  0  0  0  0  0  0  0  0  0  0  0
    2.4428    1.1598    0.0000 C   0  0  0  0  0  0  0  0  0  0  0  0
    3.8734    1.6110    0.0000 C   0  0  0  0  0  0  0  0  0  0  0  0
    4.9794    0.5978    0.0000 C   0  0  0  0  0  0  0  0  0  0  0  0
    4.6549   -0.8667    0.0000 C   0  0  0  0  0  0  0  0  0  0  0  0
    3.2244   -1.3180    0.0000 C   0  0  0  0  0  0  0  0  0  0  0  0
   -2.9548    0.8193    0.0000 C   0  0  0  0  0  0  0  0  0  0  0  0
   -4.3853    0.3680    0.0000 C   0  0  0  0  0  0  0  0  0  0  0  0
   -4.7097   -1.0965    0.0000 O   0  0  0  0  0  0  0  0  0  0  0  0
   -5.4913    1.3812    0.0000 O   0  0  0  0  0  0  0  0  0  0  0  0
  2  1  1  1
  2  3  1  0
  3  4  1  0
  4  5  1  0
  5  6  2  0
  6  7  1  0
  7  8  2  0
  8  9  1  0
  9 10  2  0
  2 11  1  0
 11 12  1  0
 12 13  2  0
 12 14  1  0
 10  5  1  0
M  END
>  <rName>  (1131) 
bAla_3REtPh

>  <PQ_SYMBOL>  (1131) 
bAla_3REtPh

>  <FULL_NAME>  (1131) 
(3R)-3-amino-5-phenylpentanoic acid

>  <IUPAC_CONDENSED>  (1131) 
bAla(3R-EtPh)

>  <IUPAC>  (1131) 
(3R)-3-amino-5-phenylpentanoic acid

>  <TYPE>  (1131) 
Backbone

>  <CLASS>  (1131) 
beta

>  <ANALOG>  (1131) 
Phe

>  <MOL_WT>  (1131) 
193.24599999999995

>  <LOGP>  (1131) 
1.4211999999999998

>  <TPSA>  (1131) 
63.32000000000001

>  <POPULARITY>  (1131) 
8.5

>  <PROTECTED>  (1131) 
TRUE

>  <SMILES>  (1131) 
N[C@H](CCc1(ccccc1))CC(=O)O

>  <INCHIKEY>  (1131) 
CJJYCYZKUNRKFP-SNVBAGLBSA-N

$$$$
bAib_R
     RDKit          2D

  7  6  0  0  0  0  0  0  0  0999 V2000
   -2.2500   -0.5567    0.0000 N   0  0  0  0  0  0  0  0  0  0  0  0
   -1.5000    0.7423    0.0000 C   0  0  0  0  0  0  0  0  0  0  0  0
   -0.0000    0.7423    0.0000 C   0  0  0  0  0  0  0  0  0  0  0  0
    0.7500    2.0413    0.0000 C   0  0  0  0  0  0  0  0  0  0  0  0
    0.7500   -0.5567    0.0000 C   0  0  0  0  0  0  0  0  0  0  0  0
    2.2500   -0.5567    0.0000 O   0  0  0  0  0  0  0  0  0  0  0  0
    0.0000   -1.8558    0.0000 O   0  0  0  0  0  0  0  0  0  0  0  0
  1  2  1  0
  2  3  1  0
  3  4  1  1
  3  5  1  0
  5  6  2  0
  5  7  1  0
M  END
>  <rName>  (1132) 
bAib_R

>  <PQ_SYMBOL>  (1132) 
bAib_R

>  <FULL_NAME>  (1132) 
(2R)-3-amino-2-methylpropanoic acid

>  <IUPAC_CONDENSED>  (1132) 
bAib(R)

>  <IUPAC>  (1132) 
(2R)-3-amino-2-methylpropanoic acid

>  <TYPE>  (1132) 
Backbone

>  <CLASS>  (1132) 
beta

>  <ANALOG>  (1132) 
Ala

>  <MOL_WT>  (1132) 
103.12099999999998

>  <LOGP>  (1132) 
-0.3342000000000001

>  <TPSA>  (1132) 
63.32000000000001

>  <POPULARITY>  (1132) 
18

>  <PROTECTED>  (1132) 
TRUE

>  <SMILES>  (1132) 
NC[C@@H](C)C(=O)O

>  <INCHIKEY>  (1132) 
QCHPKSFMDHPSNR-GSVOUGTGSA-N

$$$$
hPhe_34diCl
     RDKit          2D

 15 15  0  0  0  0  0  0  0  0999 V2000
   -3.3791   -1.9420    0.0000 N   0  0  0  0  0  0  0  0  0  0  0  0
   -3.1429   -0.4608    0.0000 C   0  0  0  0  0  0  0  0  0  0  0  0
   -1.7419    0.0753    0.0000 C   0  0  0  0  0  0  0  0  0  0  0  0
   -0.5772   -0.8699    0.0000 C   0  0  0  0  0  0  0  0  0  0  0  0
    0.8237   -0.3339    0.0000 C   0  0  0  0  0  0  0  0  0  0  0  0
    1.0600    1.1474    0.0000 C   0  0  0  0  0  0  0  0  0  0  0  0
    2.4609    1.6834    0.0000 C   0  0  0  0  0  0  0  0  0  0  0  0
    3.6256    0.7382    0.0000 C   0  0  0  0  0  0  0  0  0  0  0  0
    5.0266    1.2742    0.0000 Cl  0  0  0  0  0  0  0  0  0  0  0  0
    3.3894   -0.7431    0.0000 C   0  0  0  0  0  0  0  0  0  0  0  0
    4.5541   -1.6883    0.0000 Cl  0  0  0  0  0  0  0  0  0  0  0  0
    1.9884   -1.2791    0.0000 C   0  0  0  0  0  0  0  0  0  0  0  0
   -4.3076    0.4845    0.0000 C   0  0  0  0  0  0  0  0  0  0  0  0
   -4.0713    1.9658    0.0000 O   0  0  0  0  0  0  0  0  0  0  0  0
   -5.7085   -0.0516    0.0000 O   0  0  0  0  0  0  0  0  0  0  0  0
  2  1  1  6
  2  3  1  0
  3  4  1  0
  4  5  1  0
  5  6  1  0
  6  7  2  0
  7  8  1  0
  8  9  1  0
  8 10  2  0
 10 11  1  0
 10 12  1  0
  2 13  1  0
 13 14  2  0
 13 15  1  0
 12  5  2  0
M  END
>  <rName>  (1133) 
hPhe_34diCl

>  <PQ_SYMBOL>  (1133) 
hPhe_34diCl

>  <FULL_NAME>  (1133) 
3,4-dichloro-L-homophe

>  <IUPAC_CONDENSED>  (1133) 
hPhe(3,4-diCl)

>  <IUPAC>  (1133) 
(2S)-2-amino-4-(3,4-dichlorophenyl)butanoic acid

>  <TYPE>  (1133) 
Backbone

>  <CLASS>  (1133) 
alpha

>  <ANALOG>  (1133) 
Phe

>  <MOL_WT>  (1133) 
248.10899999999998

>  <LOGP>  (1133) 
2.3379

>  <TPSA>  (1133) 
63.32000000000001

>  <POPULARITY>  (1133) 
4.7

>  <PROTECTED>  (1133) 
TRUE

>  <SMILES>  (1133) 
N[C@@H](CCc1(ccc(Cl)c(Cl)c1))C(=O)O

>  <INCHIKEY>  (1133) 
PHCCQGLRCCLUBD-VIFPVBQESA-N

$$$$
Phe_3F_5Cl
     RDKit          2D

 14 14  0  0  0  0  0  0  0  0999 V2000
   -1.8014    1.6047    0.0000 N   0  0  0  0  0  0  0  0  0  0  0  0
   -2.1617    0.1486    0.0000 C   0  0  0  0  0  0  0  0  0  0  0  0
   -1.0809   -0.8915    0.0000 C   0  0  0  0  0  0  0  0  0  0  0  0
    0.3603   -0.4755    0.0000 C   0  0  0  0  0  0  0  0  0  0  0  0
    0.7206    0.9806    0.0000 C   0  0  0  0  0  0  0  0  0  0  0  0
    2.1617    1.3967    0.0000 C   0  0  0  0  0  0  0  0  0  0  0  0
    2.5220    2.8527    0.0000 F   0  0  0  0  0  0  0  0  0  0  0  0
    3.2426    0.3566    0.0000 C   0  0  0  0  0  0  0  0  0  0  0  0
    2.8823   -1.0995    0.0000 C   0  0  0  0  0  0  0  0  0  0  0  0
    3.9632   -2.1396    0.0000 Cl  0  0  0  0  0  0  0  0  0  0  0  0
    1.4412   -1.5155    0.0000 C   0  0  0  0  0  0  0  0  0  0  0  0
   -3.6029   -0.2674    0.0000 C   0  0  0  0  0  0  0  0  0  0  0  0
   -3.9632   -1.7235    0.0000 O   0  0  0  0  0  0  0  0  0  0  0  0
   -4.6837    0.7726    0.0000 O   0  0  0  0  0  0  0  0  0  0  0  0
  2  1  1  1
  2  3  1  0
  3  4  1  0
  4  5  2  0
  5  6  1  0
  6  7  1  0
  6  8  2  0
  8  9  1  0
  9 10  1  0
  9 11  2  0
  2 12  1  0
 12 13  2  0
 12 14  1  0
 11  4  1  0
M  END
>  <rName>  (1134) 
Phe_3F_5Cl

>  <PQ_SYMBOL>  (1134) 
Phe_3F_5Cl

>  <FULL_NAME>  (1134) 
(2S)-2-amino-3-(3-chloro-5-fluorophenyl)propanoic acid

>  <IUPAC_CONDENSED>  (1134) 
Phe(3-F,5-Cl)

>  <IUPAC>  (1134) 
(2S)-2-amino-3-(3-chloro-5-fluorophenyl)propanoic acid

>  <TYPE>  (1134) 
Backbone

>  <CLASS>  (1134) 
alpha

>  <ANALOG>  (1134) 
Phe

>  <MOL_WT>  (1134) 
217.62699999999998

>  <LOGP>  (1134) 
1.4335000000000002

>  <TPSA>  (1134) 
63.32000000000001

>  <POPULARITY>  (1134) 
3

>  <PROTECTED>  (1134) 
TRUE

>  <SMILES>  (1134) 
N[C@@H](Cc1(cc(F)cc(Cl)c1))C(=O)O

>  <INCHIKEY>  (1134) 
DORXZOHSYXOQIU-QMMMGPOBSA-N

$$$$
NMe-Gly_cPent
     RDKit          2D

 11 11  0  0  0  0  0  0  0  0999 V2000
   -1.3728   -1.6194    0.0000 N   0  0  0  0  0  0  0  0  0  0  0  0
   -2.8702   -1.7083    0.0000 C   0  0  0  0  0  0  0  0  0  0  0  0
   -0.7011   -0.2782    0.0000 C   0  0  0  0  0  0  0  0  0  0  0  0
    0.7963   -0.1893    0.0000 C   0  0  0  0  0  0  0  0  0  0  0  0
    1.7483   -1.3485    0.0000 C   0  0  0  0  0  0  0  0  0  0  0  0
    3.1449   -0.8013    0.0000 C   0  0  0  0  0  0  0  0  0  0  0  0
    3.0560    0.6961    0.0000 C   0  0  0  0  0  0  0  0  0  0  0  0
    1.6045    1.0743    0.0000 C   0  0  0  0  0  0  0  0  0  0  0  0
   -1.5267    0.9741    0.0000 C   0  0  0  0  0  0  0  0  0  0  0  0
   -0.8550    2.3153    0.0000 O   0  0  0  0  0  0  0  0  0  0  0  0
   -3.0241    0.8852    0.0000 O   0  0  0  0  0  0  0  0  0  0  0  0
  1  2  1  0
  3  1  1  6
  3  4  1  0
  4  5  1  0
  5  6  1  0
  6  7  1  0
  7  8  1  0
  3  9  1  0
  9 10  2  0
  9 11  1  0
  8  4  1  0
M  END
>  <rName>  (1135) 
NMe-Gly_cPent

>  <PQ_SYMBOL>  (1135) 
NMe-Gly_cPent

>  <FULL_NAME>  (1135) 
N-methyl-2-cyclopentyl-L-glycine

>  <IUPAC_CONDENSED>  (1135) 
Me-Gly(cPent)

>  <IUPAC>  (1135) 
(2S)-2-cyclopentyl-2-(methylamino)acetic acid

>  <TYPE>  (1135) 
Backbone

>  <CLASS>  (1135) 
alpha

>  <ANALOG>  (1135) 
X

>  <MOL_WT>  (1135) 
157.21300000000002

>  <LOGP>  (1135) 
0.8492

>  <TPSA>  (1135) 
49.33

>  <POPULARITY>  (1135) 
11.4

>  <PROTECTED>  (1135) 
TRUE

>  <SMILES>  (1135) 
N(C)[C@@H](C1(CCCC1))C(=O)O

>  <INCHIKEY>  (1135) 
WPRPSYRCLINFTF-ZETCQYMHSA-N

$$$$
hPhe_4CF3
     RDKit          2D

 17 17  0  0  0  0  0  0  0  0999 V2000
   -4.3296   -1.7850    0.0000 N   0  0  0  0  0  0  0  0  0  0  0  0
   -3.9152   -0.3434    0.0000 C   0  0  0  0  0  0  0  0  0  0  0  0
   -2.4595    0.0185    0.0000 C   0  0  0  0  0  0  0  0  0  0  0  0
   -1.4182   -1.0612    0.0000 C   0  0  0  0  0  0  0  0  0  0  0  0
    0.0375   -0.6993    0.0000 C   0  0  0  0  0  0  0  0  0  0  0  0
    0.4519    0.7423    0.0000 C   0  0  0  0  0  0  0  0  0  0  0  0
    1.9076    1.1041    0.0000 C   0  0  0  0  0  0  0  0  0  0  0  0
    2.9489    0.0244    0.0000 C   0  0  0  0  0  0  0  0  0  0  0  0
    2.5344   -1.4172    0.0000 C   0  0  0  0  0  0  0  0  0  0  0  0
    1.0787   -1.7791    0.0000 C   0  0  0  0  0  0  0  0  0  0  0  0
    4.4046    0.3863    0.0000 C   0  0  0  0  0  0  0  0  0  0  0  0
    5.8602    0.7481    0.0000 F   0  0  0  0  0  0  0  0  0  0  0  0
    4.7664   -1.0694    0.0000 F   0  0  0  0  0  0  0  0  0  0  0  0
    4.0427    1.8420    0.0000 F   0  0  0  0  0  0  0  0  0  0  0  0
   -4.9564    0.7364    0.0000 C   0  0  0  0  0  0  0  0  0  0  0  0
   -4.5419    2.1780    0.0000 O   0  0  0  0  0  0  0  0  0  0  0  0
   -6.4121    0.3745    0.0000 O   0  0  0  0  0  0  0  0  0  0  0  0
  2  1  1  6
  2  3  1  0
  3  4  1  0
  4  5  1  0
  5  6  1  0
  6  7  2  0
  7  8  1  0
  8  9  2  0
  9 10  1  0
  8 11  1  0
 11 12  1  0
 11 13  1  0
 11 14  1  0
  2 15  1  0
 15 16  2  0
 15 17  1  0
 10  5  2  0
M  END
>  <rName>  (1136) 
hPhe_4CF3

>  <PQ_SYMBOL>  (1136) 
hPhe_4CF3

>  <FULL_NAME>  (1136) 
4-trifluoromethyl-L-homophe

>  <IUPAC_CONDENSED>  (1136) 
hPhe(4-CF3)

>  <IUPAC>  (1136) 
(2S)-2-amino-4-(4-(trifluoromethyl)phenyl)butanoic acid

>  <TYPE>  (1136) 
Backbone

>  <CLASS>  (1136) 
alpha

>  <ANALOG>  (1136) 
Phe

>  <MOL_WT>  (1136) 
247.21599999999995

>  <LOGP>  (1136) 
2.0499

>  <TPSA>  (1136) 
63.32000000000001

>  <POPULARITY>  (1136) 
9.4

>  <PROTECTED>  (1136) 
TRUE

>  <SMILES>  (1136) 
N[C@@H](CCc1(ccc(cc1)C(F)(F)F))C(=O)O

>  <INCHIKEY>  (1136) 
VOINSBLLXKDEJC-VIFPVBQESA-N

$$$$
NMe-Chg
     RDKit          2D

 12 12  0  0  0  0  0  0  0  0999 V2000
   -1.6493   -1.6245    0.0000 N   0  0  0  0  0  0  0  0  0  0  0  0
   -3.1463   -1.7206    0.0000 C   0  0  0  0  0  0  0  0  0  0  0  0
   -0.9841   -0.2801    0.0000 C   0  0  0  0  0  0  0  0  0  0  0  0
    0.5128   -0.1840    0.0000 C   0  0  0  0  0  0  0  0  0  0  0  0
    1.1781    1.1604    0.0000 C   0  0  0  0  0  0  0  0  0  0  0  0
    2.6750    1.2564    0.0000 C   0  0  0  0  0  0  0  0  0  0  0  0
    3.5067    0.0081    0.0000 C   0  0  0  0  0  0  0  0  0  0  0  0
    2.8414   -1.3363    0.0000 C   0  0  0  0  0  0  0  0  0  0  0  0
    1.3445   -1.4324    0.0000 C   0  0  0  0  0  0  0  0  0  0  0  0
   -1.8157    0.9682    0.0000 C   0  0  0  0  0  0  0  0  0  0  0  0
   -1.1505    2.3126    0.0000 O   0  0  0  0  0  0  0  0  0  0  0  0
   -3.3127    0.8721    0.0000 O   0  0  0  0  0  0  0  0  0  0  0  0
  1  2  1  0
  3  1  1  6
  3  4  1  0
  4  5  1  0
  5  6  1  0
  6  7  1  0
  7  8  1  0
  8  9  1  0
  3 10  1  0
 10 11  2  0
 10 12  1  0
  9  4  1  0
M  END
>  <rName>  (1137) 
NMe-Chg

>  <PQ_SYMBOL>  (1137) 
NMe-Chg

>  <FULL_NAME>  (1137) 
N-methyl-L-cyclohexylglycine

>  <IUPAC_CONDENSED>  (1137) 
Me-Chg

>  <IUPAC>  (1137) 
(2S)-2-cyclohexyl-2-(methylamino)acetic acid

>  <TYPE>  (1137) 
Backbone

>  <CLASS>  (1137) 
alpha

>  <ANALOG>  (1137) 
X

>  <MOL_WT>  (1137) 
171.24

>  <LOGP>  (1137) 
1.2392999999999998

>  <TPSA>  (1137) 
49.33

>  <POPULARITY>  (1137) 
13.1

>  <PROTECTED>  (1137) 
TRUE

>  <SMILES>  (1137) 
N(C)[C@@H](C1(CCCCC1))C(=O)O

>  <INCHIKEY>  (1137) 
VBSXCVMRXXJTLX-QMMMGPOBSA-N

$$$$
NMe-Hse_Me
     RDKit          2D

 10  9  0  0  0  0  0  0  0  0999 V2000
   -2.0182    1.4385    0.0000 N   0  0  0  0  0  0  0  0  0  0  0  0
   -3.4137    0.8883    0.0000 C   0  0  0  0  0  0  0  0  0  0  0  0
   -0.8441    0.5050    0.0000 C   0  0  0  0  0  0  0  0  0  0  0  0
    0.5514    1.0552    0.0000 C   0  0  0  0  0  0  0  0  0  0  0  0
    1.7256    0.1218    0.0000 C   0  0  0  0  0  0  0  0  0  0  0  0
    3.1211    0.6719    0.0000 O   0  0  0  0  0  0  0  0  0  0  0  0
    4.2952   -0.2615    0.0000 C   0  0  0  0  0  0  0  0  0  0  0  0
   -1.0653   -0.9785    0.0000 C   0  0  0  0  0  0  0  0  0  0  0  0
   -2.4608   -1.5287    0.0000 O   0  0  0  0  0  0  0  0  0  0  0  0
    0.1088   -1.9120    0.0000 O   0  0  0  0  0  0  0  0  0  0  0  0
  1  2  1  0
  1  3  1  0
  3  4  1  1
  4  5  1  0
  5  6  1  0
  6  7  1  0
  3  8  1  0
  8  9  2  0
  8 10  1  0
M  END
>  <rName>  (1138) 
NMe-Hse_Me

>  <PQ_SYMBOL>  (1138) 
NMe-Hse_Me

>  <FULL_NAME>  (1138) 
N,O-dimethyl-L-homoserine

>  <IUPAC_CONDENSED>  (1138) 
Me-Hse(Me)

>  <IUPAC>  (1138) 
(2S)-4-methoxy-2-(methylamino)butanoic acid

>  <TYPE>  (1138) 
Backbone

>  <CLASS>  (1138) 
alpha

>  <ANALOG>  (1138) 
Ser

>  <MOL_WT>  (1138) 
147.174

>  <LOGP>  (1138) 
-0.30450000000000027

>  <TPSA>  (1138) 
58.56

>  <POPULARITY>  (1138) 
12.4

>  <PROTECTED>  (1138) 
TRUE

>  <SMILES>  (1138) 
N(C)[C@@H](CCOC)C(=O)O

>  <INCHIKEY>  (1138) 
ZUWJAIZCMGDJBQ-YFKPBYRVSA-N

$$$$
Gly_cBu
     RDKit          2D

  9  9  0  0  0  0  0  0  0  0999 V2000
   -0.9174   -2.0793    0.0000 N   0  0  0  0  0  0  0  0  0  0  0  0
   -0.5683   -0.6205    0.0000 C   0  0  0  0  0  0  0  0  0  0  0  0
    0.8696   -0.1934    0.0000 C   0  0  0  0  0  0  0  0  0  0  0  0
    1.5845    1.1253    0.0000 C   0  0  0  0  0  0  0  0  0  0  0  0
    2.9032    0.4104    0.0000 C   0  0  0  0  0  0  0  0  0  0  0  0
    2.1884   -0.9083    0.0000 C   0  0  0  0  0  0  0  0  0  0  0  0
   -1.6571    0.4113    0.0000 C   0  0  0  0  0  0  0  0  0  0  0  0
   -1.3079    1.8701    0.0000 O   0  0  0  0  0  0  0  0  0  0  0  0
   -3.0950   -0.0157    0.0000 O   0  0  0  0  0  0  0  0  0  0  0  0
  2  1  1  6
  2  3  1  0
  3  4  1  0
  4  5  1  0
  5  6  1  0
  2  7  1  0
  7  8  2  0
  7  9  1  0
  6  3  1  0
M  END
>  <rName>  (1139) 
Gly_cBu

>  <PQ_SYMBOL>  (1139) 
Gly_cBu

>  <FULL_NAME>  (1139) 
2-cyclobutyl-L-glycine

>  <IUPAC_CONDENSED>  (1139) 
Gly(cBu)

>  <IUPAC>  (1139) 
(2S)-2-amino-2-cyclobutylacetic acid

>  <TYPE>  (1139) 
Backbone

>  <CLASS>  (1139) 
alpha

>  <ANALOG>  (1139) 
X

>  <MOL_WT>  (1139) 
129.15900000000002

>  <LOGP>  (1139) 
0.19839999999999985

>  <TPSA>  (1139) 
63.32000000000001

>  <POPULARITY>  (1139) 
6.1

>  <PROTECTED>  (1139) 
TRUE

>  <SMILES>  (1139) 
N[C@@H](C1(CCC1))C(=O)O

>  <INCHIKEY>  (1139) 
FZENWFNLDOYYFB-YFKPBYRVSA-N

$$$$
5Pal_2F
     RDKit          2D

 13 13  0  0  0  0  0  0  0  0999 V2000
   -1.5766    1.6851    0.0000 N   0  0  0  0  0  0  0  0  0  0  0  0
   -2.0128    0.2500    0.0000 C   0  0  0  0  0  0  0  0  0  0  0  0
   -0.9880   -0.8454    0.0000 C   0  0  0  0  0  0  0  0  0  0  0  0
    0.4730   -0.5055    0.0000 C   0  0  0  0  0  0  0  0  0  0  0  0
    0.9092    0.9296    0.0000 C   0  0  0  0  0  0  0  0  0  0  0  0
    2.3702    1.2695    0.0000 C   0  0  0  0  0  0  0  0  0  0  0  0
    3.3950    0.1741    0.0000 C   0  0  0  0  0  0  0  0  0  0  0  0
    4.8560    0.5140    0.0000 F   0  0  0  0  0  0  0  0  0  0  0  0
    2.9588   -1.2611    0.0000 N   0  0  0  0  0  0  0  0  0  0  0  0
    1.4978   -1.6009    0.0000 C   0  0  0  0  0  0  0  0  0  0  0  0
   -3.4738   -0.0899    0.0000 C   0  0  0  0  0  0  0  0  0  0  0  0
   -3.9100   -1.5250    0.0000 O   0  0  0  0  0  0  0  0  0  0  0  0
   -4.4986    1.0055    0.0000 O   0  0  0  0  0  0  0  0  0  0  0  0
  2  1  1  1
  2  3  1  0
  3  4  1  0
  4  5  1  0
  5  6  2  0
  6  7  1  0
  7  8  1  0
  7  9  2  0
  9 10  1  0
  2 11  1  0
 11 12  2  0
 11 13  1  0
 10  4  2  0
M  END
>  <rName>  (1140) 
5Pal_2F

>  <PQ_SYMBOL>  (1140) 
5Pal_2F

>  <FULL_NAME>  (1140) 
(2S)-2-amino-3-(6-fluoropyridin-3-yl)propanoic Acid

>  <IUPAC_CONDENSED>  (1140) 
5Pal(2-F)

>  <IUPAC>  (1140) 
(2S)-2-amino-3-(6-fluoropyridin-3-yl)propanoic acid

>  <TYPE>  (1140) 
Backbone

>  <CLASS>  (1140) 
alpha

>  <ANALOG>  (1140) 
Phe

>  <MOL_WT>  (1140) 
184.17

>  <LOGP>  (1140) 
0.17509999999999998

>  <TPSA>  (1140) 
76.21

>  <POPULARITY>  (1140) 
3.7

>  <PROTECTED>  (1140) 
TRUE

>  <SMILES>  (1140) 
N[C@@H](Cc1(ccc(F)nc1))C(=O)O

>  <INCHIKEY>  (1140) 
PSPBMVIGHPBZQZ-LURJTMIESA-N

$$$$
NMe-Leu_45dehydro
     RDKit          2D

 10  9  0  0  0  0  0  0  0  0999 V2000
   -1.8138    1.4604    0.0000 N   0  0  0  0  0  0  0  0  0  0  0  0
   -3.1802    0.8418    0.0000 C   0  0  0  0  0  0  0  0  0  0  0  0
   -0.5948    0.5863    0.0000 C   0  0  0  0  0  0  0  0  0  0  0  0
    0.7717    1.2050    0.0000 C   0  0  0  0  0  0  0  0  0  0  0  0
    1.9907    0.3309    0.0000 C   0  0  0  0  0  0  0  0  0  0  0  0
    1.8433   -1.1619    0.0000 C   0  0  0  0  0  0  0  0  0  0  0  0
    3.3572    0.9495    0.0000 C   0  0  0  0  0  0  0  0  0  0  0  0
   -0.7422   -0.9064    0.0000 C   0  0  0  0  0  0  0  0  0  0  0  0
   -2.1087   -1.5251    0.0000 O   0  0  0  0  0  0  0  0  0  0  0  0
    0.4768   -1.7805    0.0000 O   0  0  0  0  0  0  0  0  0  0  0  0
  1  2  1  0
  1  3  1  0
  3  4  1  1
  4  5  1  0
  5  6  2  0
  5  7  1  0
  3  8  1  0
  8  9  2  0
  8 10  1  0
M  END
>  <rName>  (1141) 
NMe-Leu_45dehydro

>  <PQ_SYMBOL>  (1141) 
NMe-Leu_45dehydro

>  <FULL_NAME>  (1141) 
(2S)-4-methyl-2-(methylamino)pent-4-enoic acid

>  <IUPAC_CONDENSED>  (1141) 
Me-Leu(4,5-dehydro)

>  <IUPAC>  (1141) 
(2S)-4-methyl-2-(methylamino)pent-4-enoic acid

>  <TYPE>  (1141) 
Backbone

>  <CLASS>  (1141) 
alpha

>  <ANALOG>  (1141) 
Leu

>  <MOL_WT>  (1141) 
143.186

>  <LOGP>  (1141) 
0.6251999999999998

>  <TPSA>  (1141) 
49.33

>  <POPULARITY>  (1141) 
11.3

>  <PROTECTED>  (1141) 
TRUE

>  <SMILES>  (1141) 
N(C)[C@@H](CC(=C)C)C(=O)O

>  <INCHIKEY>  (1141) 
UDWJKFFVEHTELV-LURJTMIESA-N

$$$$
Phe_3Ac
     RDKit          2D

 15 15  0  0  0  0  0  0  0  0999 V2000
   -2.6461    1.6149    0.0000 N   0  0  0  0  0  0  0  0  0  0  0  0
   -2.6827    0.1154    0.0000 C   0  0  0  0  0  0  0  0  0  0  0  0
   -1.4023   -0.6660    0.0000 C   0  0  0  0  0  0  0  0  0  0  0  0
   -0.0854    0.0521    0.0000 C   0  0  0  0  0  0  0  0  0  0  0  0
   -0.0488    1.5516    0.0000 C   0  0  0  0  0  0  0  0  0  0  0  0
    1.2681    2.2698    0.0000 C   0  0  0  0  0  0  0  0  0  0  0  0
    2.5485    1.4884    0.0000 C   0  0  0  0  0  0  0  0  0  0  0  0
    2.5119   -0.0112    0.0000 C   0  0  0  0  0  0  0  0  0  0  0  0
    1.1950   -0.7293    0.0000 C   0  0  0  0  0  0  0  0  0  0  0  0
    3.7923   -0.7926    0.0000 C   0  0  0  0  0  0  0  0  0  0  0  0
    5.1093   -0.0745    0.0000 O   0  0  0  0  0  0  0  0  0  0  0  0
    3.7558   -2.2922    0.0000 C   0  0  0  0  0  0  0  0  0  0  0  0
   -3.9996   -0.6028    0.0000 C   0  0  0  0  0  0  0  0  0  0  0  0
   -4.0361   -2.1023    0.0000 O   0  0  0  0  0  0  0  0  0  0  0  0
   -5.2800    0.1787    0.0000 O   0  0  0  0  0  0  0  0  0  0  0  0
  2  1  1  1
  2  3  1  0
  3  4  1  0
  4  5  1  0
  5  6  2  0
  6  7  1  0
  7  8  2  0
  8  9  1  0
  8 10  1  0
 10 11  2  0
 10 12  1  0
  2 13  1  0
 13 14  2  0
 13 15  1  0
  9  4  2  0
M  END
>  <rName>  (1142) 
Phe_3Ac

>  <PQ_SYMBOL>  (1142) 
Phe_3Ac

>  <FULL_NAME>  (1142) 
(2S)-2-amino-5-[[amino-(cyanoamino)methylidene]amino]pentanoic acid

>  <IUPAC_CONDENSED>  (1142) 
Phe(3-Ac)

>  <IUPAC>  (1142) 
(2S)-3-(3-(acetyl)phenyl)-2-aminopropanoic acid

>  <TYPE>  (1142) 
Backbone

>  <CLASS>  (1142) 
alpha

>  <ANALOG>  (1142) 
Phe

>  <MOL_WT>  (1142) 
207.22899999999996

>  <LOGP>  (1142) 
0.8435999999999999

>  <TPSA>  (1142) 
80.39

>  <POPULARITY>  (1142) 
4.2

>  <PROTECTED>  (1142) 
TRUE

>  <SMILES>  (1142) 
N[C@@H](Cc1(cccc(c1)C(=O)C))C(=O)O

>  <INCHIKEY>  (1142) 
IBCKYXVMEMSMQM-JTQLQIEISA-N

$$$$
D-Tic_7OMe
     RDKit          2D

 15 16  0  0  0  0  0  0  0  0999 V2000
   -1.8077   -1.5627    0.0000 N   0  0  0  0  0  0  0  0  0  0  0  0
   -2.3522   -0.1650    0.0000 C   0  0  0  0  0  0  0  0  0  0  0  0
   -1.4140    1.0053    0.0000 C   0  0  0  0  0  0  0  0  0  0  0  0
    0.0687    0.7780    0.0000 C   0  0  0  0  0  0  0  0  0  0  0  0
    1.0069    1.9484    0.0000 C   0  0  0  0  0  0  0  0  0  0  0  0
    2.4896    1.7210    0.0000 C   0  0  0  0  0  0  0  0  0  0  0  0
    3.0341    0.3233    0.0000 C   0  0  0  0  0  0  0  0  0  0  0  0
    4.5167    0.0960    0.0000 O   0  0  0  0  0  0  0  0  0  0  0  0
    5.0612   -1.3017    0.0000 C   0  0  0  0  0  0  0  0  0  0  0  0
    2.0958   -0.8471    0.0000 C   0  0  0  0  0  0  0  0  0  0  0  0
    0.6132   -0.6197    0.0000 C   0  0  0  0  0  0  0  0  0  0  0  0
   -0.3251   -1.7901    0.0000 C   0  0  0  0  0  0  0  0  0  0  0  0
   -3.8349    0.0623    0.0000 C   0  0  0  0  0  0  0  0  0  0  0  0
   -4.7731   -1.1080    0.0000 O   0  0  0  0  0  0  0  0  0  0  0  0
   -4.3793    1.4600    0.0000 O   0  0  0  0  0  0  0  0  0  0  0  0
  1  2  1  0
  2  3  1  0
  3  4  1  0
  4  5  1  0
  5  6  2  0
  6  7  1  0
  7  8  1  0
  8  9  1  0
  7 10  2  0
 10 11  1  0
 11 12  1  0
  2 13  1  1
 13 14  2  0
 13 15  1  0
 11  4  2  0
 12  1  1  0
M  END
>  <rName>  (1143) 
D-Tic_7OMe

>  <PQ_SYMBOL>  (1143) 
D-Tic_7OMe

>  <FULL_NAME>  (1143) 
(3R)-7-methoxy-1,2,3,4-tetrahydroisoquinoline-3-carboxylic acid

>  <IUPAC_CONDENSED>  (1143) 
D-Tic(7-OMe)

>  <IUPAC>  (1143) 
(4R)-9-methoxy-3-azabicyclo[4.4.0]deca-1(10),6,8-triene-4-carboxylic acid

>  <TYPE>  (1143) 
Backbone

>  <CLASS>  (1143) 
alpha

>  <ANALOG>  (1143) 
Pro

>  <MOL_WT>  (1143) 
207.22899999999996

>  <LOGP>  (1143) 
0.7941

>  <TPSA>  (1143) 
58.56

>  <POPULARITY>  (1143) 
5.8

>  <PROTECTED>  (1143) 
TRUE

>  <SMILES>  (1143) 
N2[C@H](Cc1(ccc(OC)cc1C2))C(=O)O

>  <INCHIKEY>  (1143) 
YDNMAPUCPGTICT-SNVBAGLBSA-N

$$$$
Gly_4piperidyl
     RDKit          2D

 11 11  0  0  0  0  0  0  0  0999 V2000
   -1.6031   -2.0851    0.0000 N   0  0  0  0  0  0  0  0  0  0  0  0
   -1.1770   -0.6469    0.0000 C   0  0  0  0  0  0  0  0  0  0  0  0
    0.2816   -0.2968    0.0000 C   0  0  0  0  0  0  0  0  0  0  0  0
    0.7077    1.1415    0.0000 C   0  0  0  0  0  0  0  0  0  0  0  0
    2.1662    1.4916    0.0000 C   0  0  0  0  0  0  0  0  0  0  0  0
    3.1987    0.4035    0.0000 N   0  0  0  0  0  0  0  0  0  0  0  0
    2.7726   -1.0347    0.0000 C   0  0  0  0  0  0  0  0  0  0  0  0
    1.3141   -1.3849    0.0000 C   0  0  0  0  0  0  0  0  0  0  0  0
   -2.2095    0.4412    0.0000 C   0  0  0  0  0  0  0  0  0  0  0  0
   -1.7834    1.8794    0.0000 O   0  0  0  0  0  0  0  0  0  0  0  0
   -3.6680    0.0911    0.0000 O   0  0  0  0  0  0  0  0  0  0  0  0
  2  1  1  6
  2  3  1  0
  3  4  1  0
  4  5  1  0
  5  6  1  0
  6  7  1  0
  7  8  1  0
  2  9  1  0
  9 10  2  0
  9 11  1  0
  8  3  1  0
M  END
>  <rName>  (1144) 
Gly_4piperidyl

>  <PQ_SYMBOL>  (1144) 
Gly_4piperidyl

>  <FULL_NAME>  (1144) 
(2S)-2-amino-2-piperidin-4-ylacetic acid

>  <IUPAC_CONDENSED>  (1144) 
Gly(4-piperidyl)

>  <IUPAC>  (1144) 
(2S)-2-amino-2-(piperidin-4-yl)acetic acid

>  <TYPE>  (1144) 
Backbone

>  <CLASS>  (1144) 
alpha

>  <ANALOG>  (1144) 
Lys

>  <MOL_WT>  (1144) 
158.20100000000002

>  <LOGP>  (1144) 
-0.6021000000000001

>  <TPSA>  (1144) 
75.35

>  <POPULARITY>  (1144) 
9.8

>  <PROTECTED>  (1144) 
TRUE

>  <SMILES>  (1144) 
N[C@@H](C1(CCNCC1))C(=O)O

>  <INCHIKEY>  (1144) 
SRMWKNUAAAAUED-LURJTMIESA-N

$$$$
Tic_5Me
     RDKit          2D

 14 15  0  0  0  0  0  0  0  0999 V2000
   -1.4856   -1.6416    0.0000 N   0  0  0  0  0  0  0  0  0  0  0  0
   -1.7624   -0.1673    0.0000 C   0  0  0  0  0  0  0  0  0  0  0  0
   -0.6240    0.8095    0.0000 C   0  0  0  0  0  0  0  0  0  0  0  0
    0.7911    0.3120    0.0000 C   0  0  0  0  0  0  0  0  0  0  0  0
    1.9295    1.2888    0.0000 C   0  0  0  0  0  0  0  0  0  0  0  0
    1.6527    2.7631    0.0000 C   0  0  0  0  0  0  0  0  0  0  0  0
    3.3446    0.7913    0.0000 C   0  0  0  0  0  0  0  0  0  0  0  0
    3.6213   -0.6829    0.0000 C   0  0  0  0  0  0  0  0  0  0  0  0
    2.4830   -1.6597    0.0000 C   0  0  0  0  0  0  0  0  0  0  0  0
    1.0678   -1.1622    0.0000 C   0  0  0  0  0  0  0  0  0  0  0  0
   -0.0705   -2.1390    0.0000 C   0  0  0  0  0  0  0  0  0  0  0  0
   -3.1775    0.3302    0.0000 C   0  0  0  0  0  0  0  0  0  0  0  0
   -4.3158   -0.6466    0.0000 O   0  0  0  0  0  0  0  0  0  0  0  0
   -3.4542    1.8044    0.0000 O   0  0  0  0  0  0  0  0  0  0  0  0
  1  2  1  0
  2  3  1  0
  3  4  1  0
  4  5  2  0
  5  6  1  0
  5  7  1  0
  7  8  2  0
  8  9  1  0
  9 10  2  0
 10 11  1  0
  2 12  1  6
 12 13  2  0
 12 14  1  0
 10  4  1  0
 11  1  1  0
M  END
>  <rName>  (1145) 
Tic_5Me

>  <PQ_SYMBOL>  (1145) 
Tic_5Me

>  <FULL_NAME>  (1145) 
(3S)-5-methyl-1,2,3,4-tetrahydroisoquinoline-3-carboxylic acid

>  <IUPAC_CONDENSED>  (1145) 
Tic(5-Me)

>  <IUPAC>  (1145) 
(4S)-7-methyl-3-azabicyclo[4.4.0]deca-1(10),6,8-triene-4-carboxylic acid

>  <TYPE>  (1145) 
Backbone

>  <CLASS>  (1145) 
alpha

>  <ANALOG>  (1145) 
Pro

>  <MOL_WT>  (1145) 
191.22999999999996

>  <LOGP>  (1145) 
1.09392

>  <TPSA>  (1145) 
49.33

>  <POPULARITY>  (1145) 
3.1

>  <PROTECTED>  (1145) 
TRUE

>  <SMILES>  (1145) 
N2[C@@H](Cc1(c(C)cccc1C2))C(=O)O

>  <INCHIKEY>  (1145) 
QLFCCSYNIFSINY-JTQLQIEISA-N

$$$$
Phe_3Me_4Cl
     RDKit          2D

 14 14  0  0  0  0  0  0  0  0999 V2000
   -2.0094    1.6916    0.0000 N   0  0  0  0  0  0  0  0  0  0  0  0
   -2.3243    0.2250    0.0000 C   0  0  0  0  0  0  0  0  0  0  0  0
   -1.2116   -0.7809    0.0000 C   0  0  0  0  0  0  0  0  0  0  0  0
    0.2159   -0.3203    0.0000 C   0  0  0  0  0  0  0  0  0  0  0  0
    0.5308    1.1463    0.0000 C   0  0  0  0  0  0  0  0  0  0  0  0
    1.9583    1.6069    0.0000 C   0  0  0  0  0  0  0  0  0  0  0  0
    3.0710    0.6009    0.0000 C   0  0  0  0  0  0  0  0  0  0  0  0
    4.4985    1.0615    0.0000 Cl  0  0  0  0  0  0  0  0  0  0  0  0
    2.7561   -0.8657    0.0000 C   0  0  0  0  0  0  0  0  0  0  0  0
    3.8688   -1.8716    0.0000 C   0  0  0  0  0  0  0  0  0  0  0  0
    1.3286   -1.3263    0.0000 C   0  0  0  0  0  0  0  0  0  0  0  0
   -3.7518   -0.2356    0.0000 C   0  0  0  0  0  0  0  0  0  0  0  0
   -4.0666   -1.7022    0.0000 O   0  0  0  0  0  0  0  0  0  0  0  0
   -4.8644    0.7704    0.0000 O   0  0  0  0  0  0  0  0  0  0  0  0
  2  1  1  1
  2  3  1  0
  3  4  1  0
  4  5  1  0
  5  6  2  0
  6  7  1  0
  7  8  1  0
  7  9  2  0
  9 10  1  0
  9 11  1  0
  2 12  1  0
 12 13  2  0
 12 14  1  0
 11  4  2  0
M  END
>  <rName>  (1146) 
Phe_3Me_4Cl

>  <PQ_SYMBOL>  (1146) 
Phe_3Me_4Cl

>  <FULL_NAME>  (1146) 
3-Methyl-4-Chloro-L-Phenylalanine

>  <IUPAC_CONDENSED>  (1146) 
Phe(3-Me,4-Cl)

>  <IUPAC>  (1146) 
(2S)-2-amino-3-(4-chloro-3-methylphenyl)propanoic acid

>  <TYPE>  (1146) 
Backbone

>  <CLASS>  (1146) 
alpha

>  <ANALOG>  (1146) 
Phe

>  <MOL_WT>  (1146) 
213.664

>  <LOGP>  (1146) 
1.6028200000000001

>  <TPSA>  (1146) 
63.32000000000001

>  <POPULARITY>  (1146) 
4.2

>  <PROTECTED>  (1146) 
TRUE

>  <SMILES>  (1146) 
N[C@@H](Cc1(ccc(Cl)c(C)c1))C(=O)O

>  <INCHIKEY>  (1146) 
ZOZGQWCBCFNPJE-VIFPVBQESA-N

$$$$
D-Aze
     RDKit          2D

  7  7  0  0  0  0  0  0  0  0999 V2000
    1.3117   -1.0607    0.0000 N   0  0  0  0  0  0  0  0  0  0  0  0
    0.2511    0.0000    0.0000 C   0  0  0  0  0  0  0  0  0  0  0  0
    1.3117    1.0607    0.0000 C   0  0  0  0  0  0  0  0  0  0  0  0
    2.3724    0.0000    0.0000 C   0  0  0  0  0  0  0  0  0  0  0  0
   -1.2489   -0.0000    0.0000 C   0  0  0  0  0  0  0  0  0  0  0  0
   -1.9989   -1.2990    0.0000 O   0  0  0  0  0  0  0  0  0  0  0  0
   -1.9989    1.2990    0.0000 O   0  0  0  0  0  0  0  0  0  0  0  0
  1  2  1  0
  2  3  1  0
  3  4  1  0
  2  5  1  1
  5  6  2  0
  5  7  1  0
  4  1  1  0
M  END
>  <rName>  (1147) 
D-Aze

>  <PQ_SYMBOL>  (1147) 
D-Aze

>  <FULL_NAME>  (1147) 
D-2-carboxyazetidine

>  <IUPAC_CONDENSED>  (1147) 
D-Aze

>  <IUPAC>  (1147) 
(2R)azetidine-2-carboxylic acid

>  <TYPE>  (1147) 
Backbone

>  <CLASS>  (1147) 
alpha

>  <ANALOG>  (1147) 
Pro

>  <MOL_WT>  (1147) 
101.10499999999999

>  <LOGP>  (1147) 
-0.5671000000000002

>  <TPSA>  (1147) 
49.33

>  <POPULARITY>  (1147) 
13.2

>  <PROTECTED>  (1147) 
TRUE

>  <SMILES>  (1147) 
N1[C@H](CC1)C(=O)O

>  <INCHIKEY>  (1147) 
IADUEWIQBXOCDZ-GSVOUGTGSA-N

$$$$
bAla_3SCH2cHex
     RDKit          2D

 13 13  0  0  0  0  0  0  0  0999 V2000
   -0.9767    1.2065    0.0000 N   0  0  0  0  0  0  0  0  0  0  0  0
   -1.1358   -0.2850    0.0000 C   0  0  0  0  0  0  0  0  0  0  0  0
    0.0764   -1.1685    0.0000 C   0  0  0  0  0  0  0  0  0  0  0  0
    1.4476   -0.5605    0.0000 C   0  0  0  0  0  0  0  0  0  0  0  0
    1.6067    0.9310    0.0000 C   0  0  0  0  0  0  0  0  0  0  0  0
    2.9779    1.5390    0.0000 C   0  0  0  0  0  0  0  0  0  0  0  0
    4.1901    0.6555    0.0000 C   0  0  0  0  0  0  0  0  0  0  0  0
    4.0310   -0.8361    0.0000 C   0  0  0  0  0  0  0  0  0  0  0  0
    2.6598   -1.4441    0.0000 C   0  0  0  0  0  0  0  0  0  0  0  0
   -2.5071   -0.8930    0.0000 C   0  0  0  0  0  0  0  0  0  0  0  0
   -3.7192   -0.0095    0.0000 C   0  0  0  0  0  0  0  0  0  0  0  0
   -3.5602    1.4821    0.0000 O   0  0  0  0  0  0  0  0  0  0  0  0
   -5.0905   -0.6175    0.0000 O   0  0  0  0  0  0  0  0  0  0  0  0
  2  1  1  1
  2  3  1  0
  3  4  1  0
  4  5  1  0
  5  6  1  0
  6  7  1  0
  7  8  1  0
  8  9  1  0
  2 10  1  0
 10 11  1  0
 11 12  2  0
 11 13  1  0
  9  4  1  0
M  END
>  <rName>  (1148) 
bAla_3SCH2cHex

>  <PQ_SYMBOL>  (1148) 
bAla_3SCH2cHex

>  <FULL_NAME>  (1148) 
(S)-3-Amino-4-cyclohexylbutanoic acid

>  <IUPAC_CONDENSED>  (1148) 
bAla(3S-CH2cHex)

>  <IUPAC>  (1148) 
(3S)-3-amino-4-cyclohexylbutanoic acid

>  <TYPE>  (1148) 
Backbone

>  <CLASS>  (1148) 
beta

>  <ANALOG>  (1148) 
Ala

>  <MOL_WT>  (1148) 
185.267

>  <LOGP>  (1148) 
1.7588

>  <TPSA>  (1148) 
63.32000000000001

>  <POPULARITY>  (1148) 
9

>  <PROTECTED>  (1148) 
TRUE

>  <SMILES>  (1148) 
N[C@@H](CC1(CCCCC1))CC(=O)O

>  <INCHIKEY>  (1148) 
KFJPIMWRYYGPGM-VIFPVBQESA-N

$$$$
Pro_4SMe
     RDKit          2D

  9  9  0  0  0  0  0  0  0  0999 V2000
   -0.1792   -1.4541    0.0000 N   0  0  0  0  0  0  0  0  0  0  0  0
    0.4598   -0.0969    0.0000 C   0  0  0  0  0  0  0  0  0  0  0  0
   -0.6334    0.9301    0.0000 C   0  0  0  0  0  0  0  0  0  0  0  0
   -1.9481    0.2077    0.0000 C   0  0  0  0  0  0  0  0  0  0  0  0
   -3.3052    0.8467    0.0000 C   0  0  0  0  0  0  0  0  0  0  0  0
   -1.6673   -1.2657    0.0000 C   0  0  0  0  0  0  0  0  0  0  0  0
    1.9333    0.1838    0.0000 C   0  0  0  0  0  0  0  0  0  0  0  0
    2.4269    1.6003    0.0000 O   0  0  0  0  0  0  0  0  0  0  0  0
    2.9132   -0.9519    0.0000 O   0  0  0  0  0  0  0  0  0  0  0  0
  1  2  1  0
  2  3  1  0
  3  4  1  0
  4  5  1  1
  4  6  1  0
  2  7  1  1
  7  8  2  0
  7  9  1  0
  6  1  1  0
M  END
>  <rName>  (1149) 
Pro_4SMe

>  <PQ_SYMBOL>  (1149) 
Pro_4SMe

>  <FULL_NAME>  (1149) 
(2S,4S)-4-methylpyrrolidine-2-carboxylic acid

>  <IUPAC_CONDENSED>  (1149) 
Pro(4S-Me)

>  <IUPAC>  (1149) 
(2S,4S)-4-methylpyrrolidine-2-carboxylic acid

>  <TYPE>  (1149) 
Backbone

>  <CLASS>  (1149) 
alpha

>  <ANALOG>  (1149) 
Pro

>  <MOL_WT>  (1149) 
129.15900000000002

>  <LOGP>  (1149) 
0.06899999999999967

>  <TPSA>  (1149) 
49.33

>  <POPULARITY>  (1149) 
14.7

>  <PROTECTED>  (1149) 
TRUE

>  <SMILES>  (1149) 
N1[C@@H](C[C@H](C)C1)C(=O)O

>  <INCHIKEY>  (1149) 
KKJQZEWNZXRJFG-WHFBIAKZSA-N

$$$$
Dap_CONH2
     RDKit          2D

 10  9  0  0  0  0  0  0  0  0999 V2000
    1.2717    1.9622    0.0000 N   0  0  0  0  0  0  0  0  0  0  0  0
    1.1946    0.4642    0.0000 C   0  0  0  0  0  0  0  0  0  0  0  0
   -0.1413   -0.2180    0.0000 C   0  0  0  0  0  0  0  0  0  0  0  0
   -1.4001    0.5978    0.0000 N   0  0  0  0  0  0  0  0  0  0  0  0
   -2.7359   -0.0845    0.0000 C   0  0  0  0  0  0  0  0  0  0  0  0
   -2.8131   -1.5825    0.0000 O   0  0  0  0  0  0  0  0  0  0  0  0
   -3.9947    0.7313    0.0000 N   0  0  0  0  0  0  0  0  0  0  0  0
    2.4533   -0.3516    0.0000 C   0  0  0  0  0  0  0  0  0  0  0  0
    2.3762   -1.8496    0.0000 O   0  0  0  0  0  0  0  0  0  0  0  0
    3.7892    0.3306    0.0000 O   0  0  0  0  0  0  0  0  0  0  0  0
  2  1  1  6
  2  3  1  0
  3  4  1  0
  4  5  1  0
  5  6  2  0
  5  7  1  0
  2  8  1  0
  8  9  2  0
  8 10  1  0
M  END
>  <rName>  (1150) 
Dap_CONH2

>  <PQ_SYMBOL>  (1150) 
Dap_CONH2

>  <FULL_NAME>  (1150) 
Albizziin, 3-((aminocarbonyl)amino)-L-Alanine

>  <IUPAC_CONDENSED>  (1150) 
Dap(CONH2)

>  <IUPAC>  (1150) 
(2S)-2-amino-3-(carbamoylamino)propanoic acid

>  <TYPE>  (1150) 
Backbone

>  <CLASS>  (1150) 
alpha

>  <ANALOG>  (1150) 
Arg

>  <MOL_WT>  (1150) 
147.13400000000001

>  <LOGP>  (1150) 
-1.9333999999999998

>  <TPSA>  (1150) 
118.44000000000001

>  <POPULARITY>  (1150) 
9.4

>  <PROTECTED>  (1150) 
TRUE

>  <SMILES>  (1150) 
N[C@@H](CNC(=O)N)C(=O)O

>  <INCHIKEY>  (1150) 
GZYFIMLSHBLMKF-REOHCLBHSA-N

$$$$
D-Tic_5Me
     RDKit          2D

 14 15  0  0  0  0  0  0  0  0999 V2000
   -1.4856   -1.6416    0.0000 N   0  0  0  0  0  0  0  0  0  0  0  0
   -1.7624   -0.1673    0.0000 C   0  0  0  0  0  0  0  0  0  0  0  0
   -0.6240    0.8095    0.0000 C   0  0  0  0  0  0  0  0  0  0  0  0
    0.7911    0.3120    0.0000 C   0  0  0  0  0  0  0  0  0  0  0  0
    1.9295    1.2888    0.0000 C   0  0  0  0  0  0  0  0  0  0  0  0
    1.6527    2.7631    0.0000 C   0  0  0  0  0  0  0  0  0  0  0  0
    3.3446    0.7913    0.0000 C   0  0  0  0  0  0  0  0  0  0  0  0
    3.6213   -0.6829    0.0000 C   0  0  0  0  0  0  0  0  0  0  0  0
    2.4830   -1.6597    0.0000 C   0  0  0  0  0  0  0  0  0  0  0  0
    1.0678   -1.1622    0.0000 C   0  0  0  0  0  0  0  0  0  0  0  0
   -0.0705   -2.1390    0.0000 C   0  0  0  0  0  0  0  0  0  0  0  0
   -3.1775    0.3302    0.0000 C   0  0  0  0  0  0  0  0  0  0  0  0
   -4.3158   -0.6466    0.0000 O   0  0  0  0  0  0  0  0  0  0  0  0
   -3.4542    1.8044    0.0000 O   0  0  0  0  0  0  0  0  0  0  0  0
  1  2  1  0
  2  3  1  0
  3  4  1  0
  4  5  2  0
  5  6  1  0
  5  7  1  0
  7  8  2  0
  8  9  1  0
  9 10  2  0
 10 11  1  0
  2 12  1  1
 12 13  2  0
 12 14  1  0
 10  4  1  0
 11  1  1  0
M  END
>  <rName>  (1151) 
D-Tic_5Me

>  <PQ_SYMBOL>  (1151) 
D-Tic_5Me

>  <FULL_NAME>  (1151) 
(3R)-5-methyl-1,2,3,4-tetrahydroisoquinoline-3-carboxylic acid

>  <IUPAC_CONDENSED>  (1151) 
D-Tic(5-Me)

>  <IUPAC>  (1151) 
(4R)-7-methyl-3-azabicyclo[4.4.0]deca-1(10),6,8-triene-4-carboxylic acid

>  <TYPE>  (1151) 
Backbone

>  <CLASS>  (1151) 
alpha

>  <ANALOG>  (1151) 
Pro

>  <MOL_WT>  (1151) 
191.22999999999996

>  <LOGP>  (1151) 
1.09392

>  <TPSA>  (1151) 
49.33

>  <POPULARITY>  (1151) 
3.5

>  <PROTECTED>  (1151) 
TRUE

>  <SMILES>  (1151) 
N2[C@H](Cc1(c(C)cccc1C2))C(=O)O

>  <INCHIKEY>  (1151) 
QLFCCSYNIFSINY-SNVBAGLBSA-N

$$$$
Trp_For
     RDKit          2D

 17 18  0  0  0  0  0  0  0  0999 V2000
   -2.6158   -1.6017    0.0000 N   0  0  0  0  0  0  0  0  0  0  0  0
   -2.7728   -0.1099    0.0000 C   0  0  0  0  0  0  0  0  0  0  0  0
   -1.5594    0.7719    0.0000 C   0  0  0  0  0  0  0  0  0  0  0  0
   -0.1890    0.1620    0.0000 C   0  0  0  0  0  0  0  0  0  0  0  0
    0.1231   -1.3052    0.0000 C   0  0  0  0  0  0  0  0  0  0  0  0
    1.6149   -1.4618    0.0000 N   0  0  0  0  0  0  0  0  0  0  0  0
    2.3650   -2.7607    0.0000 C   0  0  0  0  0  0  0  0  0  0  0  0
    1.6152   -4.0599    0.0000 O   0  0  0  0  0  0  0  0  0  0  0  0
    2.2248   -0.0914    0.0000 C   0  0  0  0  0  0  0  0  0  0  0  0
    3.6513    0.3723    0.0000 C   0  0  0  0  0  0  0  0  0  0  0  0
    3.9630    1.8396    0.0000 C   0  0  0  0  0  0  0  0  0  0  0  0
    2.8481    2.8431    0.0000 C   0  0  0  0  0  0  0  0  0  0  0  0
    1.4216    2.3794    0.0000 C   0  0  0  0  0  0  0  0  0  0  0  0
    1.1099    0.9122    0.0000 C   0  0  0  0  0  0  0  0  0  0  0  0
   -4.1432    0.5000    0.0000 C   0  0  0  0  0  0  0  0  0  0  0  0
   -4.3002    1.9918    0.0000 O   0  0  0  0  0  0  0  0  0  0  0  0
   -5.3566   -0.3818    0.0000 O   0  0  0  0  0  0  0  0  0  0  0  0
  2  1  1  6
  2  3  1  0
  3  4  1  0
  4  5  2  0
  5  6  1  0
  6  7  1  0
  7  8  2  0
  6  9  1  0
  9 10  2  0
 10 11  1  0
 11 12  2  0
 12 13  1  0
 13 14  2  0
  2 15  1  0
 15 16  2  0
 15 17  1  0
 14  4  1  0
 14  9  1  0
M  END
>  <rName>  (1152) 
Trp_For

>  <PQ_SYMBOL>  (1152) 
Trp_For

>  <FULL_NAME>  (1152) 
1-Formyl-L-tryptophan

>  <IUPAC_CONDENSED>  (1152) 
Trp(For)

>  <IUPAC>  (1152) 
(2S)-2-amino-3-(1-(formyl)-1H-indol-3-yl)propanoic acid

>  <TYPE>  (1152) 
Backbone

>  <CLASS>  (1152) 
alpha

>  <ANALOG>  (1152) 
Trp

>  <MOL_WT>  (1152) 
232.239

>  <LOGP>  (1152) 
0.6340000000000001

>  <TPSA>  (1152) 
85.32000000000001

>  <POPULARITY>  (1152) 
11.9

>  <PROTECTED>  (1152) 
TRUE

>  <SMILES>  (1152) 
N[C@@H](Cc1(cn(C=O)c2(ccccc12)))C(=O)O

>  <INCHIKEY>  (1152) 
KRUDZOGZZBVSHD-JTQLQIEISA-N

$$$$
2-azaBCH3101R3S5R-3-CO2H
     RDKit          2D

  9 10  0  0  0  0  0  0  0  0999 V2000
    0.4387   -1.2135    0.0000 N   0  0  0  0  0  0  0  0  0  0  0  0
   -0.4430   -0.0000    0.0000 C   0  0  0  0  0  0  0  0  0  0  0  0
    0.4387    1.2135    0.0000 C   0  0  0  0  0  0  0  0  0  0  0  0
    1.8652    0.7500    0.0000 C   0  0  0  0  0  0  0  0  0  0  0  0
    3.1643   -0.0000    0.0000 C   0  0  0  0  0  0  0  0  0  0  0  0
    1.8652   -0.7500    0.0000 C   0  0  0  0  0  0  0  0  0  0  0  0
   -1.9430    0.0000    0.0000 C   0  0  0  0  0  0  0  0  0  0  0  0
   -2.6930   -1.2990    0.0000 O   0  0  0  0  0  0  0  0  0  0  0  0
   -2.6930    1.2990    0.0000 O   0  0  0  0  0  0  0  0  0  0  0  0
  1  2  1  0
  2  3  1  0
  4  3  1  1
  4  5  1  0
  6  5  1  1
  2  7  1  6
  7  8  2  0
  7  9  1  0
  6  1  1  0
  6  4  1  0
M  END
>  <rName>  (1153) 
2-azaBCH3101R3S5R-3-CO2H

>  <PQ_SYMBOL>  (1153) 
2-azaBCH3101R3S5R-3-CO2H

>  <FULL_NAME>  (1153) 
(1R,3S,5R)-2-azabicyclo[3.1.0]hexane-3-carboxylic acid

>  <IUPAC_CONDENSED>  (1153) 
2-azaBCH[3.1.0](1R,3S,5R)-3-CO2H

>  <IUPAC>  (1153) 
(1R,3S,5R)-2-azabicyclo[3.1.0]hexane-3-carboxylic acid

>  <TYPE>  (1153) 
Backbone

>  <CLASS>  (1153) 
alpha

>  <ANALOG>  (1153) 
Pro

>  <MOL_WT>  (1153) 
127.14299999999999

>  <LOGP>  (1153) 
-0.17860000000000015

>  <TPSA>  (1153) 
49.33

>  <POPULARITY>  (1153) 
14.3

>  <PROTECTED>  (1153) 
TRUE

>  <SMILES>  (1153) 
N1[C@@H](C[C@H]2(C[C@@H]12))C(=O)O

>  <INCHIKEY>  (1153) 
XBEMWFUKTKDJKP-WDCZJNDASA-N

$$$$
Ser_Bu
     RDKit          2D

 11 10  0  0  0  0  0  0  0  0999 V2000
    1.9630   -1.8884    0.0000 N   0  0  0  0  0  0  0  0  0  0  0  0
    1.9989   -0.3888    0.0000 C   0  0  0  0  0  0  0  0  0  0  0  0
    0.7181    0.3920    0.0000 C   0  0  0  0  0  0  0  0  0  0  0  0
   -0.5985   -0.3267    0.0000 O   0  0  0  0  0  0  0  0  0  0  0  0
   -1.8792    0.4541    0.0000 C   0  0  0  0  0  0  0  0  0  0  0  0
   -3.1958   -0.2646    0.0000 C   0  0  0  0  0  0  0  0  0  0  0  0
   -4.4765    0.5162    0.0000 C   0  0  0  0  0  0  0  0  0  0  0  0
   -5.7931   -0.2025    0.0000 C   0  0  0  0  0  0  0  0  0  0  0  0
    3.3155    0.3299    0.0000 C   0  0  0  0  0  0  0  0  0  0  0  0
    3.3513    1.8295    0.0000 O   0  0  0  0  0  0  0  0  0  0  0  0
    4.5962   -0.4509    0.0000 O   0  0  0  0  0  0  0  0  0  0  0  0
  2  1  1  1
  2  3  1  0
  3  4  1  0
  4  5  1  0
  5  6  1  0
  6  7  1  0
  7  8  1  0
  2  9  1  0
  9 10  2  0
  9 11  1  0
M  END
>  <rName>  (1154) 
Ser_Bu

>  <PQ_SYMBOL>  (1154) 
Ser_Bu

>  <FULL_NAME>  (1154) 
(2S)-2-azanyl-3-butoxy-propanoic acid

>  <IUPAC_CONDENSED>  (1154) 
Ser(Bu)

>  <IUPAC>  (1154) 
(2S)-2-amino-3-butoxypropanoic acid

>  <TYPE>  (1154) 
Backbone

>  <CLASS>  (1154) 
alpha

>  <ANALOG>  (1154) 
Ser

>  <MOL_WT>  (1154) 
161.201

>  <LOGP>  (1154) 
0.21499999999999936

>  <TPSA>  (1154) 
72.55

>  <POPULARITY>  (1154) 
12.9

>  <PROTECTED>  (1154) 
TRUE

>  <SMILES>  (1154) 
N[C@@H](COCCCC)C(=O)O

>  <INCHIKEY>  (1154) 
BVQOXKZMEATPAE-LURJTMIESA-N

$$$$
D-Dap_CONH2
     RDKit          2D

 10  9  0  0  0  0  0  0  0  0999 V2000
    1.2717    1.9622    0.0000 N   0  0  0  0  0  0  0  0  0  0  0  0
    1.1946    0.4642    0.0000 C   0  0  0  0  0  0  0  0  0  0  0  0
   -0.1413   -0.2180    0.0000 C   0  0  0  0  0  0  0  0  0  0  0  0
   -1.4001    0.5978    0.0000 N   0  0  0  0  0  0  0  0  0  0  0  0
   -2.7359   -0.0845    0.0000 C   0  0  0  0  0  0  0  0  0  0  0  0
   -2.8131   -1.5825    0.0000 O   0  0  0  0  0  0  0  0  0  0  0  0
   -3.9947    0.7313    0.0000 N   0  0  0  0  0  0  0  0  0  0  0  0
    2.4533   -0.3516    0.0000 C   0  0  0  0  0  0  0  0  0  0  0  0
    2.3762   -1.8496    0.0000 O   0  0  0  0  0  0  0  0  0  0  0  0
    3.7892    0.3306    0.0000 O   0  0  0  0  0  0  0  0  0  0  0  0
  2  1  1  1
  2  3  1  0
  3  4  1  0
  4  5  1  0
  5  6  2  0
  5  7  1  0
  2  8  1  0
  8  9  2  0
  8 10  1  0
M  END
>  <rName>  (1155) 
D-Dap_CONH2

>  <PQ_SYMBOL>  (1155) 
D-Dap_CONH2

>  <FULL_NAME>  (1155) 
D-Albizziin, 3-((aminocarbonyl)amino)-D-Alanine

>  <IUPAC_CONDENSED>  (1155) 
D-Dap(CONH2)

>  <IUPAC>  (1155) 
(2R)-2-amino-3-(carbamoylamino)propanoic acid

>  <TYPE>  (1155) 
Backbone

>  <CLASS>  (1155) 
alpha

>  <ANALOG>  (1155) 
Arg

>  <MOL_WT>  (1155) 
147.13400000000001

>  <LOGP>  (1155) 
-1.9333999999999998

>  <TPSA>  (1155) 
118.44000000000001

>  <POPULARITY>  (1155) 
5.9

>  <PROTECTED>  (1155) 
TRUE

>  <SMILES>  (1155) 
N[C@H](CNC(=O)N)C(=O)O

>  <INCHIKEY>  (1155) 
GZYFIMLSHBLMKF-UWTATZPHSA-N

$$$$
aHyp_Me
     RDKit          2D

 10 10  0  0  0  0  0  0  0  0999 V2000
    0.5059   -1.6189    0.0000 N   0  0  0  0  0  0  0  0  0  0  0  0
    0.8536   -0.1598    0.0000 C   0  0  0  0  0  0  0  0  0  0  0  0
   -0.4267    0.6218    0.0000 C   0  0  0  0  0  0  0  0  0  0  0  0
   -1.5656   -0.3543    0.0000 C   0  0  0  0  0  0  0  0  0  0  0  0
   -3.0248   -0.0066    0.0000 O   0  0  0  0  0  0  0  0  0  0  0  0
   -3.4533    1.4309    0.0000 C   0  0  0  0  0  0  0  0  0  0  0  0
   -0.9893   -1.7392    0.0000 C   0  0  0  0  0  0  0  0  0  0  0  0
    2.2384    0.4166    0.0000 C   0  0  0  0  0  0  0  0  0  0  0  0
    2.4317    1.9041    0.0000 O   0  0  0  0  0  0  0  0  0  0  0  0
    3.4300   -0.4945    0.0000 O   0  0  0  0  0  0  0  0  0  0  0  0
  1  2  1  0
  2  3  1  0
  3  4  1  0
  4  5  1  1
  5  6  1  0
  4  7  1  0
  2  8  1  1
  8  9  2  0
  8 10  1  0
  7  1  1  0
M  END
>  <rName>  (1156) 
aHyp_Me

>  <PQ_SYMBOL>  (1156) 
aHyp_Me

>  <FULL_NAME>  (1156) 
(2S,4S)-4-methoxypyrrolidine-2-carboxylic acid

>  <IUPAC_CONDENSED>  (1156) 
aHyp(Me)

>  <IUPAC>  (1156) 
(2S,4S)-4-methoxypyrrolidine-2-carboxylic acid

>  <TYPE>  (1156) 
Backbone

>  <CLASS>  (1156) 
alpha

>  <ANALOG>  (1156) 
Pro

>  <MOL_WT>  (1156) 
145.15800000000002

>  <LOGP>  (1156) 
-0.5521

>  <TPSA>  (1156) 
58.56

>  <POPULARITY>  (1156) 
11.6

>  <PROTECTED>  (1156) 
TRUE

>  <SMILES>  (1156) 
N1[C@@H](C[C@H](OC)C1)C(=O)O

>  <INCHIKEY>  (1156) 
RNXKXUOGQKYKTH-WHFBIAKZSA-N

$$$$
Ala_fluoren9yl
     RDKit          2D

 19 21  0  0  0  0  0  0  0  0999 V2000
   -3.6110    1.7319    0.0000 N   0  0  0  0  0  0  0  0  0  0  0  0
   -4.0000    0.2832    0.0000 C   0  0  0  0  0  0  0  0  0  0  0  0
   -2.9398   -0.7779    0.0000 C   0  0  0  0  0  0  0  0  0  0  0  0
   -1.4907   -0.3904    0.0000 C   0  0  0  0  0  0  0  0  0  0  0  0
   -1.1018    1.0583    0.0000 C   0  0  0  0  0  0  0  0  0  0  0  0
    0.3473    1.4458    0.0000 C   0  0  0  0  0  0  0  0  0  0  0  0
    1.4074    0.3846    0.0000 C   0  0  0  0  0  0  0  0  0  0  0  0
    1.0185   -1.0641    0.0000 C   0  0  0  0  0  0  0  0  0  0  0  0
   -0.4306   -1.4516    0.0000 C   0  0  0  0  0  0  0  0  0  0  0  0
    2.2761   -1.8816    0.0000 C   0  0  0  0  0  0  0  0  0  0  0  0
    3.4423   -0.9382    0.0000 C   0  0  0  0  0  0  0  0  0  0  0  0
    4.9237   -1.1736    0.0000 C   0  0  0  0  0  0  0  0  0  0  0  0
    5.8682   -0.0083    0.0000 C   0  0  0  0  0  0  0  0  0  0  0  0
    5.3314    1.3923    0.0000 C   0  0  0  0  0  0  0  0  0  0  0  0
    3.8499    1.6277    0.0000 C   0  0  0  0  0  0  0  0  0  0  0  0
    2.9054    0.4624    0.0000 C   0  0  0  0  0  0  0  0  0  0  0  0
   -5.4490   -0.1043    0.0000 C   0  0  0  0  0  0  0  0  0  0  0  0
   -5.8380   -1.5530    0.0000 O   0  0  0  0  0  0  0  0  0  0  0  0
   -6.5092    0.9569    0.0000 O   0  0  0  0  0  0  0  0  0  0  0  0
  2  1  1  1
  2  3  1  0
  3  4  1  0
  4  5  2  0
  5  6  1  0
  6  7  2  0
  7  8  1  0
  8  9  2  0
  8 10  1  0
 10 11  1  0
 11 12  2  0
 12 13  1  0
 13 14  2  0
 14 15  1  0
 15 16  2  0
  2 17  1  0
 17 18  2  0
 17 19  1  0
  9  4  1  0
 16  7  1  0
 16 11  1  0
M  END
>  <rName>  (1157) 
Ala_fluoren9yl

>  <PQ_SYMBOL>  (1157) 
Ala_fluoren9yl

>  <FULL_NAME>  (1157) 
(2S)-2-amino-3-(9H-fluoren-2-yl)propanoic acid

>  <IUPAC_CONDENSED>  (1157) 
Ala(fluoren-9-yl)

>  <IUPAC>  (1157) 
(2S)-2-amino-3-(tricyclo[7.4.0.0^{2,7}]trideca-1(13),2,4,6,9,11-hexaen-11-yl)propanoic acid

>  <TYPE>  (1157) 
Backbone

>  <CLASS>  (1157) 
alpha

>  <ANALOG>  (1157) 
Phe

>  <MOL_WT>  (1157) 
253.30099999999996

>  <LOGP>  (1157) 
2.2122

>  <TPSA>  (1157) 
63.32000000000001

>  <POPULARITY>  (1157) 
2.8

>  <PROTECTED>  (1157) 
TRUE

>  <SMILES>  (1157) 
N[C@@H](Cc1(ccc2(c(c1)Cc3(ccccc23))))C(=O)O

>  <INCHIKEY>  (1157) 
GLWFDTWIDROQIY-HNNXBMFYSA-N

$$$$
D-Ser_allyl
     RDKit          2D

 10  9  0  0  0  0  0  0  0  0999 V2000
   -1.4166   -1.8843    0.0000 N   0  0  0  0  0  0  0  0  0  0  0  0
   -1.4265   -0.3844    0.0000 C   0  0  0  0  0  0  0  0  0  0  0  0
   -0.1324    0.3741    0.0000 C   0  0  0  0  0  0  0  0  0  0  0  0
    1.1716   -0.3673    0.0000 O   0  0  0  0  0  0  0  0  0  0  0  0
    2.4657    0.3912    0.0000 C   0  0  0  0  0  0  0  0  0  0  0  0
    3.7696   -0.3503    0.0000 C   0  0  0  0  0  0  0  0  0  0  0  0
    5.0637    0.4082    0.0000 C   0  0  0  0  0  0  0  0  0  0  0  0
   -2.7304    0.3571    0.0000 C   0  0  0  0  0  0  0  0  0  0  0  0
   -2.7402    1.8571    0.0000 O   0  0  0  0  0  0  0  0  0  0  0  0
   -4.0245   -0.4014    0.0000 O   0  0  0  0  0  0  0  0  0  0  0  0
  2  1  1  1
  2  3  1  0
  3  4  1  0
  4  5  1  0
  5  6  1  0
  6  7  2  0
  2  8  1  0
  8  9  2  0
  8 10  1  0
M  END
>  <rName>  (1158) 
D-Ser_allyl

>  <PQ_SYMBOL>  (1158) 
D-Ser_allyl

>  <FULL_NAME>  (1158) 
(2R)-2-amino-3-prop-2-enoxypropanoic acid

>  <IUPAC_CONDENSED>  (1158) 
D-Ser(allyl)

>  <IUPAC>  (1158) 
(2R)-2-amino-3-((prop-2-en-1-yl)oxy)propanoic acid

>  <TYPE>  (1158) 
Backbone

>  <CLASS>  (1158) 
alpha

>  <ANALOG>  (1158) 
Ser

>  <MOL_WT>  (1158) 
145.158

>  <LOGP>  (1158) 
-0.3991000000000003

>  <TPSA>  (1158) 
72.55

>  <POPULARITY>  (1158) 
7.7

>  <PROTECTED>  (1158) 
TRUE

>  <SMILES>  (1158) 
N[C@H](COCC=C)C(=O)O

>  <INCHIKEY>  (1158) 
PLTOASLATKFEBR-RXMQYKEDSA-N

$$$$
Trp_EtO2H
     RDKit          2D

 19 20  0  0  0  0  0  0  0  0999 V2000
   -2.4259   -1.6973    0.0000 N   0  0  0  0  0  0  0  0  0  0  0  0
   -2.9155   -0.2794    0.0000 C   0  0  0  0  0  0  0  0  0  0  0  0
   -1.9324    0.8535    0.0000 C   0  0  0  0  0  0  0  0  0  0  0  0
   -0.4598    0.5686    0.0000 C   0  0  0  0  0  0  0  0  0  0  0  0
    0.1754   -0.7903    0.0000 C   0  0  0  0  0  0  0  0  0  0  0  0
    1.6640   -0.6061    0.0000 N   0  0  0  0  0  0  0  0  0  0  0  0
    2.6880   -1.7022    0.0000 C   0  0  0  0  0  0  0  0  0  0  0  0
    2.2507   -3.1371    0.0000 C   0  0  0  0  0  0  0  0  0  0  0  0
    0.7895   -3.4758    0.0000 O   0  0  0  0  0  0  0  0  0  0  0  0
    3.2747   -4.2332    0.0000 O   0  0  0  0  0  0  0  0  0  0  0  0
    1.9489    0.8666    0.0000 C   0  0  0  0  0  0  0  0  0  0  0  0
    3.2340    1.6403    0.0000 C   0  0  0  0  0  0  0  0  0  0  0  0
    3.2065    3.1400    0.0000 C   0  0  0  0  0  0  0  0  0  0  0  0
    1.8939    3.8661    0.0000 C   0  0  0  0  0  0  0  0  0  0  0  0
    0.6088    3.0924    0.0000 C   0  0  0  0  0  0  0  0  0  0  0  0
    0.6364    1.5926    0.0000 C   0  0  0  0  0  0  0  0  0  0  0  0
   -4.3882    0.0055    0.0000 C   0  0  0  0  0  0  0  0  0  0  0  0
   -4.8778    1.4233    0.0000 O   0  0  0  0  0  0  0  0  0  0  0  0
   -5.3713   -1.1275    0.0000 O   0  0  0  0  0  0  0  0  0  0  0  0
  2  1  1  6
  2  3  1  0
  3  4  1  0
  4  5  2  0
  5  6  1  0
  6  7  1  0
  7  8  1  0
  8  9  2  0
  8 10  1  0
  6 11  1  0
 11 12  2  0
 12 13  1  0
 13 14  2  0
 14 15  1  0
 15 16  2  0
  2 17  1  0
 17 18  2  0
 17 19  1  0
 16  4  1  0
 16 11  1  0
M  END
>  <rName>  (1159) 
Trp_EtO2H

>  <PQ_SYMBOL>  (1159) 
Trp_EtO2H

>  <FULL_NAME>  (1159) 
(2S)-2-amino-3-[1-(carboxymethyl)indol-3-yl]propanoic acid

>  <IUPAC_CONDENSED>  (1159) 
Trp(EtO2H)

>  <IUPAC>  (1159) 
(2S)-2-amino-3-(1-(2-hydroxy-2-oxoethyl)-1H-indol-3-yl)propanoic acid

>  <TYPE>  (1159) 
Backbone

>  <CLASS>  (1159) 
alpha

>  <ANALOG>  (1159) 
Trp

>  <MOL_WT>  (1159) 
262.265

>  <LOGP>  (1159) 
0.6802999999999993

>  <TPSA>  (1159) 
105.55

>  <POPULARITY>  (1159) 
9

>  <PROTECTED>  (1159) 
TRUE

>  <SMILES>  (1159) 
N[C@@H](Cc1(cn(CC(=O)O)c2(ccccc12)))C(=O)O

>  <INCHIKEY>  (1159) 
NUIINCMATQEUSS-JTQLQIEISA-N

$$$$
bAla_3RCH2cHex
     RDKit          2D

 13 13  0  0  0  0  0  0  0  0999 V2000
   -0.9767    1.2065    0.0000 N   0  0  0  0  0  0  0  0  0  0  0  0
   -1.1358   -0.2850    0.0000 C   0  0  0  0  0  0  0  0  0  0  0  0
    0.0764   -1.1685    0.0000 C   0  0  0  0  0  0  0  0  0  0  0  0
    1.4476   -0.5605    0.0000 C   0  0  0  0  0  0  0  0  0  0  0  0
    1.6067    0.9310    0.0000 C   0  0  0  0  0  0  0  0  0  0  0  0
    2.9779    1.5390    0.0000 C   0  0  0  0  0  0  0  0  0  0  0  0
    4.1901    0.6555    0.0000 C   0  0  0  0  0  0  0  0  0  0  0  0
    4.0310   -0.8361    0.0000 C   0  0  0  0  0  0  0  0  0  0  0  0
    2.6598   -1.4441    0.0000 C   0  0  0  0  0  0  0  0  0  0  0  0
   -2.5071   -0.8930    0.0000 C   0  0  0  0  0  0  0  0  0  0  0  0
   -3.7192   -0.0095    0.0000 C   0  0  0  0  0  0  0  0  0  0  0  0
   -3.5602    1.4821    0.0000 O   0  0  0  0  0  0  0  0  0  0  0  0
   -5.0905   -0.6175    0.0000 O   0  0  0  0  0  0  0  0  0  0  0  0
  2  1  1  6
  2  3  1  0
  3  4  1  0
  4  5  1  0
  5  6  1  0
  6  7  1  0
  7  8  1  0
  8  9  1  0
  2 10  1  0
 10 11  1  0
 11 12  2  0
 11 13  1  0
  9  4  1  0
M  END
>  <rName>  (1160) 
bAla_3RCH2cHex

>  <PQ_SYMBOL>  (1160) 
bAla_3RCH2cHex

>  <FULL_NAME>  (1160) 
(R)-3-Amino-4-cyclohexylbutanoic acid

>  <IUPAC_CONDENSED>  (1160) 
bAla(3R-CH2cHex)

>  <IUPAC>  (1160) 
(3R)-3-amino-4-cyclohexylbutanoic acid

>  <TYPE>  (1160) 
Backbone

>  <CLASS>  (1160) 
beta

>  <ANALOG>  (1160) 
Ala

>  <MOL_WT>  (1160) 
185.267

>  <LOGP>  (1160) 
1.7588

>  <TPSA>  (1160) 
63.32000000000001

>  <POPULARITY>  (1160) 
7.9

>  <PROTECTED>  (1160) 
TRUE

>  <SMILES>  (1160) 
N[C@H](CC1(CCCCC1))CC(=O)O

>  <INCHIKEY>  (1160) 
KFJPIMWRYYGPGM-SECBINFHSA-N

$$$$
Thr_Ac
     RDKit          2D

 11 10  0  0  0  0  0  0  0  0999 V2000
   -0.1540    1.5290    0.0000 N   0  0  0  0  0  0  0  0  0  0  0  0
    0.6675    0.2740    0.0000 C   0  0  0  0  0  0  0  0  0  0  0  0
   -0.0086   -1.0650    0.0000 C   0  0  0  0  0  0  0  0  0  0  0  0
   -1.5062   -1.1490    0.0000 O   0  0  0  0  0  0  0  0  0  0  0  0
   -2.3278    0.1061    0.0000 C   0  0  0  0  0  0  0  0  0  0  0  0
   -1.6517    1.4450    0.0000 O   0  0  0  0  0  0  0  0  0  0  0  0
   -3.8254    0.0221    0.0000 C   0  0  0  0  0  0  0  0  0  0  0  0
    0.8129   -2.3200    0.0000 C   0  0  0  0  0  0  0  0  0  0  0  0
    2.1652    0.3579    0.0000 C   0  0  0  0  0  0  0  0  0  0  0  0
    2.9867   -0.8971    0.0000 O   0  0  0  0  0  0  0  0  0  0  0  0
    2.8413    1.6969    0.0000 O   0  0  0  0  0  0  0  0  0  0  0  0
  2  1  1  6
  2  3  1  0
  3  4  1  0
  4  5  1  0
  5  6  2  0
  5  7  1  0
  3  8  1  1
  2  9  1  0
  9 10  2  0
  9 11  1  0
M  END
>  <rName>  (1161) 
Thr_Ac

>  <PQ_SYMBOL>  (1161) 
Thr_Ac

>  <FULL_NAME>  (1161) 
(2S,3R)-3-acetyloxy-2-aminobutanoic acid

>  <IUPAC_CONDENSED>  (1161) 
Thr(Ac)

>  <IUPAC>  (1161) 
(2S,3R)-2-amino-3-(acetoxy)butanoic acid

>  <TYPE>  (1161) 
Backbone

>  <CLASS>  (1161) 
alpha

>  <ANALOG>  (1161) 
Thr

>  <MOL_WT>  (1161) 
161.15699999999998

>  <LOGP>  (1161) 
-0.6501000000000001

>  <TPSA>  (1161) 
89.62

>  <POPULARITY>  (1161) 
18.6

>  <PROTECTED>  (1161) 
TRUE

>  <SMILES>  (1161) 
N[C@@H]([C@H](OC(=O)C)C)C(=O)O

>  <INCHIKEY>  (1161) 
GOVSRIMJZNIFHS-WUJLRWPWSA-N

$$$$
Ser_Et
     RDKit          2D

  9  8  0  0  0  0  0  0  0  0999 V2000
    0.7616   -1.8791    0.0000 N   0  0  0  0  0  0  0  0  0  0  0  0
    0.8459   -0.3815    0.0000 C   0  0  0  0  0  0  0  0  0  0  0  0
   -0.4089    0.4403    0.0000 C   0  0  0  0  0  0  0  0  0  0  0  0
   -1.7480   -0.2354    0.0000 O   0  0  0  0  0  0  0  0  0  0  0  0
   -3.0029    0.5864    0.0000 C   0  0  0  0  0  0  0  0  0  0  0  0
   -4.3420   -0.0894    0.0000 C   0  0  0  0  0  0  0  0  0  0  0  0
    2.1851    0.2943    0.0000 C   0  0  0  0  0  0  0  0  0  0  0  0
    2.2694    1.7919    0.0000 O   0  0  0  0  0  0  0  0  0  0  0  0
    3.4399   -0.5275    0.0000 O   0  0  0  0  0  0  0  0  0  0  0  0
  2  1  1  1
  2  3  1  0
  3  4  1  0
  4  5  1  0
  5  6  1  0
  2  7  1  0
  7  8  2  0
  7  9  1  0
M  END
>  <rName>  (1162) 
Ser_Et

>  <PQ_SYMBOL>  (1162) 
Ser_Et

>  <FULL_NAME>  (1162) 
(2S)-2-Amino-3-ethoxypropanoic acid

>  <IUPAC_CONDENSED>  (1162) 
Ser(Et)

>  <IUPAC>  (1162) 
(2S)-2-amino-3-ethoxypropanoic acid

>  <TYPE>  (1162) 
Backbone

>  <CLASS>  (1162) 
alpha

>  <ANALOG>  (1162) 
Ser

>  <MOL_WT>  (1162) 
133.147

>  <LOGP>  (1162) 
-0.5652000000000004

>  <TPSA>  (1162) 
72.55

>  <POPULARITY>  (1162) 
13.7

>  <PROTECTED>  (1162) 
TRUE

>  <SMILES>  (1162) 
N[C@@H](COCC)C(=O)O

>  <INCHIKEY>  (1162) 
AFGCRUGTZPDWSF-BYPYZUCNSA-N

$$$$
D-Ser_Et
     RDKit          2D

  9  8  0  0  0  0  0  0  0  0999 V2000
    0.7616   -1.8791    0.0000 N   0  0  0  0  0  0  0  0  0  0  0  0
    0.8459   -0.3815    0.0000 C   0  0  0  0  0  0  0  0  0  0  0  0
   -0.4089    0.4403    0.0000 C   0  0  0  0  0  0  0  0  0  0  0  0
   -1.7480   -0.2354    0.0000 O   0  0  0  0  0  0  0  0  0  0  0  0
   -3.0029    0.5864    0.0000 C   0  0  0  0  0  0  0  0  0  0  0  0
   -4.3420   -0.0894    0.0000 C   0  0  0  0  0  0  0  0  0  0  0  0
    2.1851    0.2943    0.0000 C   0  0  0  0  0  0  0  0  0  0  0  0
    2.2694    1.7919    0.0000 O   0  0  0  0  0  0  0  0  0  0  0  0
    3.4399   -0.5275    0.0000 O   0  0  0  0  0  0  0  0  0  0  0  0
  2  1  1  6
  2  3  1  0
  3  4  1  0
  4  5  1  0
  5  6  1  0
  2  7  1  0
  7  8  2  0
  7  9  1  0
M  END
>  <rName>  (1163) 
D-Ser_Et

>  <PQ_SYMBOL>  (1163) 
D-Ser_Et

>  <FULL_NAME>  (1163) 
(2R)-2-Amino-3-ethoxypropanoic acid

>  <IUPAC_CONDENSED>  (1163) 
D-Ser(Et)

>  <IUPAC>  (1163) 
(2R)-2-amino-3-ethoxypropanoic acid

>  <TYPE>  (1163) 
Backbone

>  <CLASS>  (1163) 
alpha

>  <ANALOG>  (1163) 
Ser

>  <MOL_WT>  (1163) 
133.147

>  <LOGP>  (1163) 
-0.5652000000000004

>  <TPSA>  (1163) 
72.55

>  <POPULARITY>  (1163) 
11.7

>  <PROTECTED>  (1163) 
TRUE

>  <SMILES>  (1163) 
N[C@H](COCC)C(=O)O

>  <INCHIKEY>  (1163) 
AFGCRUGTZPDWSF-SCSAIBSYSA-N

$$$$
Phe_35diCF3
     RDKit          2D

 20 20  0  0  0  0  0  0  0  0999 V2000
   -2.9633    1.2252    0.0000 N   0  0  0  0  0  0  0  0  0  0  0  0
   -3.1963   -0.2566    0.0000 C   0  0  0  0  0  0  0  0  0  0  0  0
   -2.0296   -1.1993    0.0000 C   0  0  0  0  0  0  0  0  0  0  0  0
   -0.6298   -0.6602    0.0000 C   0  0  0  0  0  0  0  0  0  0  0  0
   -0.3968    0.8216    0.0000 C   0  0  0  0  0  0  0  0  0  0  0  0
    1.0030    1.3607    0.0000 C   0  0  0  0  0  0  0  0  0  0  0  0
    2.1697    0.4180    0.0000 C   0  0  0  0  0  0  0  0  0  0  0  0
    1.9367   -1.0638    0.0000 C   0  0  0  0  0  0  0  0  0  0  0  0
    0.5370   -1.6029    0.0000 C   0  0  0  0  0  0  0  0  0  0  0  0
    3.1035   -2.0064    0.0000 C   0  0  0  0  0  0  0  0  0  0  0  0
    4.2703   -2.9491    0.0000 F   0  0  0  0  0  0  0  0  0  0  0  0
    2.1608   -3.1732    0.0000 F   0  0  0  0  0  0  0  0  0  0  0  0
    4.0462   -0.8397    0.0000 F   0  0  0  0  0  0  0  0  0  0  0  0
    1.2360    2.8425    0.0000 C   0  0  0  0  0  0  0  0  0  0  0  0
    1.4690    4.3243    0.0000 F   0  0  0  0  0  0  0  0  0  0  0  0
    2.7178    2.6095    0.0000 F   0  0  0  0  0  0  0  0  0  0  0  0
   -0.2458    3.0755    0.0000 F   0  0  0  0  0  0  0  0  0  0  0  0
   -4.5961   -0.7957    0.0000 C   0  0  0  0  0  0  0  0  0  0  0  0
   -4.8291   -2.2775    0.0000 O   0  0  0  0  0  0  0  0  0  0  0  0
   -5.7629    0.1470    0.0000 O   0  0  0  0  0  0  0  0  0  0  0  0
  2  1  1  1
  2  3  1  0
  3  4  1  0
  4  5  1  0
  5  6  2  0
  6  7  1  0
  7  8  2  0
  8  9  1  0
  8 10  1  0
 10 11  1  0
 10 12  1  0
 10 13  1  0
  6 14  1  0
 14 15  1  0
 14 16  1  0
 14 17  1  0
  2 18  1  0
 18 19  2  0
 18 20  1  0
  9  4  2  0
M  END
>  <rName>  (1164) 
Phe_35diCF3

>  <PQ_SYMBOL>  (1164) 
Phe_35diCF3

>  <FULL_NAME>  (1164) 
(2S)-2-amino-3-[3,5-bis(trifluoromethyl)phenyl]propanoic acid

>  <IUPAC_CONDENSED>  (1164) 
Phe(3,5-diCF3)

>  <IUPAC>  (1164) 
(2S)-2-amino-3-(3,5-bis(trifluoromethyl)phenyl)propanoic acid

>  <TYPE>  (1164) 
Backbone

>  <CLASS>  (1164) 
alpha

>  <ANALOG>  (1164) 
Phe

>  <MOL_WT>  (1164) 
301.186

>  <LOGP>  (1164) 
2.6786000000000003

>  <TPSA>  (1164) 
63.32000000000001

>  <POPULARITY>  (1164) 
8.5

>  <PROTECTED>  (1164) 
TRUE

>  <SMILES>  (1164) 
N[C@@H](Cc1(cc(cc(c1)C(F)(F)F)C(F)(F)F))C(=O)O

>  <INCHIKEY>  (1164) 
NMTMNIDBMOGRKI-QMMMGPOBSA-N

$$$$
Azi
     RDKit          2D

  6  6  0  0  0  0  0  0  0  0999 V2000
   -1.8660   -0.7500    0.0000 N   0  0  0  0  0  0  0  0  0  0  0  0
   -0.5670   -0.0000    0.0000 C   0  0  0  0  0  0  0  0  0  0  0  0
   -1.8660    0.7500    0.0000 C   0  0  0  0  0  0  0  0  0  0  0  0
    0.9330    0.0000    0.0000 C   0  0  0  0  0  0  0  0  0  0  0  0
    1.6830    1.2990    0.0000 O   0  0  0  0  0  0  0  0  0  0  0  0
    1.6830   -1.2990    0.0000 O   0  0  0  0  0  0  0  0  0  0  0  0
  1  2  1  0
  2  3  1  0
  2  4  1  1
  4  5  2  0
  4  6  1  0
  3  1  1  0
M  END
>  <rName>  (1165) 
Azi

>  <PQ_SYMBOL>  (1165) 
Azi

>  <FULL_NAME>  (1165) 
(2S)-aziridine-2-carboxylic acid

>  <IUPAC_CONDENSED>  (1165) 
Azi

>  <IUPAC>  (1165) 
(2S)-aziridine-2-carboxylic acid

>  <TYPE>  (1165) 
Backbone

>  <CLASS>  (1165) 
alpha

>  <ANALOG>  (1165) 
Ala

>  <MOL_WT>  (1165) 
87.07799999999999

>  <LOGP>  (1165) 
-0.9572

>  <TPSA>  (1165) 
59.24000000000001

>  <POPULARITY>  (1165) 
10.4

>  <PROTECTED>  (1165) 
TRUE

>  <SMILES>  (1165) 
N1[C@@H](C1)C(=O)O

>  <INCHIKEY>  (1165) 
WBGBOXYJYPVLQJ-REOHCLBHSA-N

$$$$
D-Ala_CN
     RDKit          2D

  8  7  0  0  0  0  0  0  0  0999 V2000
    0.0877   -1.7162    0.0000 N   0  0  0  0  0  0  0  0  0  0  0  0
   -0.2706   -0.2596    0.0000 C   0  0  0  0  0  0  0  0  0  0  0  0
    0.8117    0.7789    0.0000 C   0  0  0  0  0  0  0  0  0  0  0  0
    2.2523    0.3609    0.0000 C   0  0  0  0  0  0  0  0  0  0  0  0
    3.6929   -0.0571    0.0000 N   0  0  0  0  0  0  0  0  0  0  0  0
   -1.7112    0.1584    0.0000 C   0  0  0  0  0  0  0  0  0  0  0  0
   -2.0694    1.6149    0.0000 O   0  0  0  0  0  0  0  0  0  0  0  0
   -2.7934   -0.8802    0.0000 O   0  0  0  0  0  0  0  0  0  0  0  0
  2  1  1  1
  2  3  1  0
  3  4  1  0
  4  5  3  0
  2  6  1  0
  6  7  2  0
  6  8  1  0
M  END
>  <rName>  (1166) 
D-Ala_CN

>  <PQ_SYMBOL>  (1166) 
D-Ala_CN

>  <FULL_NAME>  (1166) 
(2R)-2-amino-3-cyanopropanoic acid

>  <IUPAC_CONDENSED>  (1166) 
D-Ala(CN)

>  <IUPAC>  (1166) 
(2R)-2-amino-3-cyanopropanoic acid

>  <TYPE>  (1166) 
Backbone

>  <CLASS>  (1166) 
alpha

>  <ANALOG>  (1166) 
X

>  <MOL_WT>  (1166) 
114.10399999999998

>  <LOGP>  (1166) 
-0.6880200000000001

>  <TPSA>  (1166) 
87.11

>  <POPULARITY>  (1166) 
8.7

>  <PROTECTED>  (1166) 
TRUE

>  <SMILES>  (1166) 
N[C@H](CC#N)C(=O)O

>  <INCHIKEY>  (1166) 
BXRLWGXPSRYJDZ-GSVOUGTGSA-N

$$$$
Hse_Ph
     RDKit          2D

 14 14  0  0  0  0  0  0  0  0999 V2000
   -2.7125    1.8435    0.0000 N   0  0  0  0  0  0  0  0  0  0  0  0
   -2.9490    0.3623    0.0000 C   0  0  0  0  0  0  0  0  0  0  0  0
   -1.7844   -0.5831    0.0000 C   0  0  0  0  0  0  0  0  0  0  0  0
   -0.3834   -0.0473    0.0000 C   0  0  0  0  0  0  0  0  0  0  0  0
    0.7812   -0.9927    0.0000 O   0  0  0  0  0  0  0  0  0  0  0  0
    2.1822   -0.4569    0.0000 C   0  0  0  0  0  0  0  0  0  0  0  0
    2.4187    1.0244    0.0000 C   0  0  0  0  0  0  0  0  0  0  0  0
    3.8197    1.5602    0.0000 C   0  0  0  0  0  0  0  0  0  0  0  0
    4.9842    0.6148    0.0000 C   0  0  0  0  0  0  0  0  0  0  0  0
    4.7478   -0.8664    0.0000 C   0  0  0  0  0  0  0  0  0  0  0  0
    3.3467   -1.4023    0.0000 C   0  0  0  0  0  0  0  0  0  0  0  0
   -4.3500   -0.1735    0.0000 C   0  0  0  0  0  0  0  0  0  0  0  0
   -4.5865   -1.6548    0.0000 O   0  0  0  0  0  0  0  0  0  0  0  0
   -5.5146    0.7719    0.0000 O   0  0  0  0  0  0  0  0  0  0  0  0
  2  1  1  1
  2  3  1  0
  3  4  1  0
  4  5  1  0
  5  6  1  0
  6  7  2  0
  7  8  1  0
  8  9  2  0
  9 10  1  0
 10 11  2  0
  2 12  1  0
 12 13  2  0
 12 14  1  0
 11  6  1  0
M  END
>  <rName>  (1167) 
Hse_Ph

>  <PQ_SYMBOL>  (1167) 
Hse_Ph

>  <FULL_NAME>  (1167) 
(2S)-2-amino-4-phenoxybutanoic acid

>  <IUPAC_CONDENSED>  (1167) 
Hse(Ph)

>  <IUPAC>  (1167) 
(2S)-2-amino-4-phenoxybutanoic acid

>  <TYPE>  (1167) 
Backbone

>  <CLASS>  (1167) 
alpha

>  <ANALOG>  (1167) 
Ser

>  <MOL_WT>  (1167) 
195.218

>  <LOGP>  (1167) 
0.8674

>  <TPSA>  (1167) 
72.55

>  <POPULARITY>  (1167) 
12.3

>  <PROTECTED>  (1167) 
TRUE

>  <SMILES>  (1167) 
N[C@@H](CCOc1(ccccc1))C(=O)O

>  <INCHIKEY>  (1167) 
OZTJTXTWPFGIHY-VIFPVBQESA-N

$$$$
D-Lys_Me2
     RDKit          2D

 12 11  0  0  0  0  0  0  0  0999 V2000
    2.4617    1.9005    0.0000 N   0  0  0  0  0  0  0  0  0  0  0  0
    2.4001    0.4018    0.0000 C   0  0  0  0  0  0  0  0  0  0  0  0
    1.0713   -0.2943    0.0000 C   0  0  0  0  0  0  0  0  0  0  0  0
   -0.1958    0.5085    0.0000 C   0  0  0  0  0  0  0  0  0  0  0  0
   -1.5245   -0.1875    0.0000 C   0  0  0  0  0  0  0  0  0  0  0  0
   -2.7917    0.6152    0.0000 C   0  0  0  0  0  0  0  0  0  0  0  0
   -4.1204   -0.0808    0.0000 N   0  0  0  0  0  0  0  0  0  0  0  0
   -5.3876    0.7219    0.0000 C   0  0  0  0  0  0  0  0  0  0  0  0
   -4.1820   -1.5796    0.0000 C   0  0  0  0  0  0  0  0  0  0  0  0
    3.6672   -0.4010    0.0000 C   0  0  0  0  0  0  0  0  0  0  0  0
    3.6056   -1.8997    0.0000 O   0  0  0  0  0  0  0  0  0  0  0  0
    4.9960    0.2950    0.0000 O   0  0  0  0  0  0  0  0  0  0  0  0
  2  1  1  1
  2  3  1  0
  3  4  1  0
  4  5  1  0
  5  6  1  0
  6  7  1  0
  7  8  1  0
  7  9  1  0
  2 10  1  0
 10 11  2  0
 10 12  1  0
M  END
>  <rName>  (1168) 
D-Lys_Me2

>  <PQ_SYMBOL>  (1168) 
D-Lys_Me2

>  <FULL_NAME>  (1168) 
D-N-epsilon-Dimethyllysine

>  <IUPAC_CONDENSED>  (1168) 
D-Lys(Me2)

>  <IUPAC>  (1168) 
(2R)-2-amino-6-(dimethylamino)hexanoic acid

>  <TYPE>  (1168) 
Backbone

>  <CLASS>  (1168) 
alpha

>  <ANALOG>  (1168) 
Lys

>  <MOL_WT>  (1168) 
174.244

>  <LOGP>  (1168) 
0.13020000000000004

>  <TPSA>  (1168) 
66.56

>  <POPULARITY>  (1168) 
11.1

>  <PROTECTED>  (1168) 
TRUE

>  <SMILES>  (1168) 
N[C@H](CCCCN(C)C)C(=O)O

>  <INCHIKEY>  (1168) 
XXEWFEBMSGLYBY-SSDOTTSWSA-N

$$$$
NMe-Aib
     RDKit          2D

  8  7  0  0  0  0  0  0  0  0999 V2000
    1.6552   -0.6779    0.0000 N   0  0  0  0  0  0  0  0  0  0  0  0
    2.7534    0.3439    0.0000 C   0  0  0  0  0  0  0  0  0  0  0  0
    0.2212   -0.2378    0.0000 C   0  0  0  0  0  0  0  0  0  0  0  0
   -0.2189   -1.6717    0.0000 C   0  0  0  0  0  0  0  0  0  0  0  0
    0.6614    1.1962    0.0000 C   0  0  0  0  0  0  0  0  0  0  0  0
   -1.2127    0.2024    0.0000 C   0  0  0  0  0  0  0  0  0  0  0  0
   -2.3109   -0.8194    0.0000 O   0  0  0  0  0  0  0  0  0  0  0  0
   -1.5485    1.6643    0.0000 O   0  0  0  0  0  0  0  0  0  0  0  0
  1  2  1  0
  1  3  1  0
  3  4  1  0
  3  5  1  0
  3  6  1  0
  6  7  2  0
  6  8  1  0
M  END
>  <rName>  (1169) 
NMe-Aib

>  <PQ_SYMBOL>  (1169) 
NMe-Aib

>  <FULL_NAME>  (1169) 
methyl alpha-aminoisobutyric acid (2-aminoalanine)

>  <IUPAC_CONDENSED>  (1169) 
Me-Aib

>  <IUPAC>  (1169) 
2-methyl-2-(methylamino)propanoic acid

>  <TYPE>  (1169) 
Backbone

>  <CLASS>  (1169) 
alpha

>  <ANALOG>  (1169) 
Ala

>  <MOL_WT>  (1169) 
117.14799999999998

>  <LOGP>  (1169) 
0.06899999999999967

>  <TPSA>  (1169) 
49.33

>  <POPULARITY>  (1169) 
18.2

>  <PROTECTED>  (1169) 
TRUE

>  <SMILES>  (1169) 
N(C)C(C)(C)C(=O)O

>  <INCHIKEY>  (1169) 
DLAMVQGYEVKIRE-UHFFFAOYSA-N

$$$$
gGlu
     RDKit          2D

 10  9  0  0  0  0  0  0  0  0999 V2000
    1.2717   -1.9622    0.0000 N   0  0  0  0  0  0  0  0  0  0  0  0
    1.1946   -0.4642    0.0000 C   0  0  0  0  0  0  0  0  0  0  0  0
    2.4533    0.3516    0.0000 C   0  0  0  0  0  0  0  0  0  0  0  0
    2.3762    1.8496    0.0000 O   0  0  0  0  0  0  0  0  0  0  0  0
    3.7892   -0.3306    0.0000 O   0  0  0  0  0  0  0  0  0  0  0  0
   -0.1413    0.2180    0.0000 C   0  0  0  0  0  0  0  0  0  0  0  0
   -1.4001   -0.5978    0.0000 C   0  0  0  0  0  0  0  0  0  0  0  0
   -2.7359    0.0845    0.0000 C   0  0  0  0  0  0  0  0  0  0  0  0
   -2.8131    1.5825    0.0000 O   0  0  0  0  0  0  0  0  0  0  0  0
   -3.9947   -0.7313    0.0000 O   0  0  0  0  0  0  0  0  0  0  0  0
  2  1  1  1
  2  3  1  0
  3  4  2  0
  3  5  1  0
  2  6  1  0
  6  7  1  0
  7  8  1  0
  8  9  2  0
  8 10  1  0
M  END
>  <rName>  (1170) 
gGlu

>  <PQ_SYMBOL>  (1170) 
gGlu

>  <FULL_NAME>  (1170) 
Gamma-L-Glutamic acid

>  <IUPAC_CONDENSED>  (1170) 
gGlu

>  <IUPAC>  (1170) 
(2S)-2-aminopentanedioic acid

>  <TYPE>  (1170) 
Backbone

>  <CLASS>  (1170) 
gamma

>  <ANALOG>  (1170) 
Glu

>  <MOL_WT>  (1170) 
147.13

>  <LOGP>  (1170) 
-0.7369000000000001

>  <TPSA>  (1170) 
100.62000000000002

>  <POPULARITY>  (1170) 
28.9

>  <PROTECTED>  (1170) 
FALSE

>  <SMILES>  (1170) 
N[C@H](C(=O)O)CCC(=O)O

>  <INCHIKEY>  (1170) 
WHUUTDBJXJRKMK-VKHMYHEASA-N

$$$$
D-gGlu
     RDKit          2D

 10  9  0  0  0  0  0  0  0  0999 V2000
    1.2717   -1.9622    0.0000 N   0  0  0  0  0  0  0  0  0  0  0  0
    1.1946   -0.4642    0.0000 C   0  0  0  0  0  0  0  0  0  0  0  0
    2.4533    0.3516    0.0000 C   0  0  0  0  0  0  0  0  0  0  0  0
    2.3762    1.8496    0.0000 O   0  0  0  0  0  0  0  0  0  0  0  0
    3.7892   -0.3306    0.0000 O   0  0  0  0  0  0  0  0  0  0  0  0
   -0.1413    0.2180    0.0000 C   0  0  0  0  0  0  0  0  0  0  0  0
   -1.4001   -0.5978    0.0000 C   0  0  0  0  0  0  0  0  0  0  0  0
   -2.7359    0.0845    0.0000 C   0  0  0  0  0  0  0  0  0  0  0  0
   -2.8131    1.5825    0.0000 O   0  0  0  0  0  0  0  0  0  0  0  0
   -3.9947   -0.7313    0.0000 O   0  0  0  0  0  0  0  0  0  0  0  0
  2  1  1  6
  2  3  1  0
  3  4  2  0
  3  5  1  0
  2  6  1  0
  6  7  1  0
  7  8  1  0
  8  9  2  0
  8 10  1  0
M  END
>  <rName>  (1171) 
D-gGlu

>  <PQ_SYMBOL>  (1171) 
D-gGlu

>  <FULL_NAME>  (1171) 
Gamma-D-Glutamic acid

>  <IUPAC_CONDENSED>  (1171) 
D-gGlu

>  <IUPAC>  (1171) 
(2R)-2-aminopentanedioic acid

>  <TYPE>  (1171) 
Backbone

>  <CLASS>  (1171) 
gamma

>  <ANALOG>  (1171) 
Glu

>  <MOL_WT>  (1171) 
147.13

>  <LOGP>  (1171) 
-0.7369000000000001

>  <TPSA>  (1171) 
100.62000000000002

>  <POPULARITY>  (1171) 
26.9

>  <PROTECTED>  (1171) 
FALSE

>  <SMILES>  (1171) 
N[C@@H](C(=O)O)CCC(=O)O

>  <INCHIKEY>  (1171) 
WHUUTDBJXJRKMK-GSVOUGTGSA-N

$$$$
2-amino-Ac5c_1S_2S
     RDKit          2D

  9  9  0  0  0  0  0  0  0  0999 V2000
   -0.5115   -2.3139    0.0000 N   0  0  0  0  0  0  0  0  0  0  0  0
   -0.8624   -0.8555    0.0000 C   0  0  0  0  0  0  0  0  0  0  0  0
    0.1113    0.2855    0.0000 C   0  0  0  0  0  0  0  0  0  0  0  0
   -0.6730    1.5641    0.0000 C   0  0  0  0  0  0  0  0  0  0  0  0
   -2.1314    1.2133    0.0000 C   0  0  0  0  0  0  0  0  0  0  0  0
   -2.2485   -0.2821    0.0000 C   0  0  0  0  0  0  0  0  0  0  0  0
    1.6067    0.1685    0.0000 C   0  0  0  0  0  0  0  0  0  0  0  0
    2.4558    1.4051    0.0000 O   0  0  0  0  0  0  0  0  0  0  0  0
    2.2531   -1.1851    0.0000 O   0  0  0  0  0  0  0  0  0  0  0  0
  2  1  1  1
  2  3  1  0
  3  4  1  0
  4  5  1  0
  5  6  1  0
  3  7  1  6
  7  8  2  0
  7  9  1  0
  6  2  1  0
M  END
>  <rName>  (1172) 
2-amino-Ac5c_1S_2S

>  <PQ_SYMBOL>  (1172) 
2-amino-Ac5c_1S_2S

>  <FULL_NAME>  (1172) 
(1S,2S)-2-Aminocyclopentanecarboxylic acid, (+)-Transpentacin

>  <IUPAC_CONDENSED>  (1172) 
2-amino-Ac5c(1S,2S)

>  <IUPAC>  (1172) 
(1S,2S)-2-aminocyclopentanecarboxylic acid

>  <TYPE>  (1172) 
Backbone

>  <CLASS>  (1172) 
beta

>  <ANALOG>  (1172) 
Val

>  <MOL_WT>  (1172) 
129.15900000000002

>  <LOGP>  (1172) 
0.19839999999999985

>  <TPSA>  (1172) 
63.32000000000001

>  <POPULARITY>  (1172) 
8.3

>  <PROTECTED>  (1172) 
TRUE

>  <SMILES>  (1172) 
N[C@@H]1[C@H](CCC1)C(=O)O

>  <INCHIKEY>  (1172) 
JWYOAMOZLZXDER-WHFBIAKZSA-N

$$$$
bAla_3RCH2NHMe
     RDKit          2D

  9  9  0  0  0  0  0  0  0  0999 V2000
   -0.5115   -2.3139    0.0000 N   0  0  0  0  0  0  0  0  0  0  0  0
   -0.8624   -0.8555    0.0000 C   0  0  0  0  0  0  0  0  0  0  0  0
    0.1113    0.2855    0.0000 C   0  0  0  0  0  0  0  0  0  0  0  0
   -0.6730    1.5641    0.0000 C   0  0  0  0  0  0  0  0  0  0  0  0
   -2.1314    1.2133    0.0000 N   0  0  0  0  0  0  0  0  0  0  0  0
   -2.2485   -0.2821    0.0000 C   0  0  0  0  0  0  0  0  0  0  0  0
    1.6067    0.1685    0.0000 C   0  0  0  0  0  0  0  0  0  0  0  0
    2.4558    1.4051    0.0000 O   0  0  0  0  0  0  0  0  0  0  0  0
    2.2531   -1.1851    0.0000 O   0  0  0  0  0  0  0  0  0  0  0  0
  2  1  1  1
  2  3  1  0
  3  4  1  0
  4  5  1  0
  5  6  1  0
  3  7  1  6
  7  8  2  0
  7  9  1  0
  6  2  1  0
M  END
>  <rName>  (1173) 
bAla_3RCH2NHMe

>  <PQ_SYMBOL>  (1173) 
bAla_3RCH2NHMe

>  <FULL_NAME>  (1173) 
(3S,4R)-4-Amino-3-pyrrolidinecarboxylic acid

>  <IUPAC_CONDENSED>  (1173) 
bAla(3R-CH2NHMe)

>  <IUPAC>  (1173) 
(3S,4R)-4-aminopyrrolidine-3-carboxylic acid

>  <TYPE>  (1173) 
Backbone

>  <CLASS>  (1173) 
beta

>  <ANALOG>  (1173) 
X

>  <MOL_WT>  (1173) 
130.147

>  <LOGP>  (1173) 
-1.3822999999999994

>  <TPSA>  (1173) 
75.35

>  <POPULARITY>  (1173) 
5.8

>  <PROTECTED>  (1173) 
TRUE

>  <SMILES>  (1173) 
N[C@@H]1[C@H](CNC1)C(=O)O

>  <INCHIKEY>  (1173) 
RMNHPXDNGOBDOT-IMJSIDKUSA-N

$$$$
bAla_3SsBu_S
     RDKit          2D

 10  9  0  0  0  0  0  0  0  0999 V2000
    0.0468    2.0175    0.0000 N   0  0  0  0  0  0  0  0  0  0  0  0
   -0.3729    0.5774    0.0000 C   0  0  0  0  0  0  0  0  0  0  0  0
   -1.8299    0.2209    0.0000 C   0  0  0  0  0  0  0  0  0  0  0  0
   -2.8672    1.3044    0.0000 C   0  0  0  0  0  0  0  0  0  0  0  0
   -2.2497   -1.2192    0.0000 C   0  0  0  0  0  0  0  0  0  0  0  0
   -1.2124   -2.3027    0.0000 C   0  0  0  0  0  0  0  0  0  0  0  0
    0.6643   -0.5061    0.0000 C   0  0  0  0  0  0  0  0  0  0  0  0
    2.1213   -0.1496    0.0000 C   0  0  0  0  0  0  0  0  0  0  0  0
    2.5411    1.2905    0.0000 O   0  0  0  0  0  0  0  0  0  0  0  0
    3.1586   -1.2331    0.0000 O   0  0  0  0  0  0  0  0  0  0  0  0
  2  1  1  6
  2  3  1  0
  3  4  1  6
  3  5  1  0
  5  6  1  0
  2  7  1  0
  7  8  1  0
  8  9  2  0
  8 10  1  0
M  END
>  <rName>  (1174) 
bAla_3SsBu_S

>  <PQ_SYMBOL>  (1174) 
bAla_3SsBu_S

>  <FULL_NAME>  (1174) 
L-beta-Homoisoleucine

>  <IUPAC_CONDENSED>  (1174) 
bAla(3S-sBu(S))

>  <IUPAC>  (1174) 
(3R,4S)-3-amino-4-methylhexanoic acid

>  <TYPE>  (1174) 
Backbone

>  <CLASS>  (1174) 
beta

>  <ANALOG>  (1174) 
Ile

>  <MOL_WT>  (1174) 
145.202

>  <LOGP>  (1174) 
0.8344999999999998

>  <TPSA>  (1174) 
63.32000000000001

>  <POPULARITY>  (1174) 
24.8

>  <PROTECTED>  (1174) 
TRUE

>  <SMILES>  (1174) 
N[C@@H]([C@@H](C)CC)CC(=O)O

>  <INCHIKEY>  (1174) 
JHEDYGILOIBOTL-NTSWFWBYSA-N

$$$$
bhMet
     RDKit          2D

 10  9  0  0  0  0  0  0  0  0999 V2000
   -0.3386    1.4842    0.0000 N   0  0  0  0  0  0  0  0  0  0  0  0
   -0.2594   -0.0137    0.0000 C   0  0  0  0  0  0  0  0  0  0  0  0
    1.0773   -0.6941    0.0000 C   0  0  0  0  0  0  0  0  0  0  0  0
    2.3350    0.1233    0.0000 C   0  0  0  0  0  0  0  0  0  0  0  0
    3.6718   -0.5571    0.0000 S   0  0  0  0  0  0  0  0  0  0  0  0
    4.9295    0.2604    0.0000 C   0  0  0  0  0  0  0  0  0  0  0  0
   -1.5171   -0.8312    0.0000 C   0  0  0  0  0  0  0  0  0  0  0  0
   -2.8539   -0.1507    0.0000 C   0  0  0  0  0  0  0  0  0  0  0  0
   -2.9330    1.3472    0.0000 O   0  0  0  0  0  0  0  0  0  0  0  0
   -4.1116   -0.9682    0.0000 O   0  0  0  0  0  0  0  0  0  0  0  0
  2  1  1  1
  2  3  1  0
  3  4  1  0
  4  5  1  0
  5  6  1  0
  2  7  1  0
  7  8  1  0
  8  9  2  0
  8 10  1  0
M  END
>  <rName>  (1175) 
bhMet

>  <PQ_SYMBOL>  (1175) 
bhMet

>  <FULL_NAME>  (1175) 
L-beta-homomethionine

>  <IUPAC_CONDENSED>  (1175) 
bhMet

>  <IUPAC>  (1175) 
(3R)-3-amino-5-(methylsulfanyl)pentanoic acid

>  <TYPE>  (1175) 
Backbone

>  <CLASS>  (1175) 
beta

>  <ANALOG>  (1175) 
Met

>  <MOL_WT>  (1175) 
163.242

>  <LOGP>  (1175) 
0.5414999999999996

>  <TPSA>  (1175) 
63.32000000000001

>  <POPULARITY>  (1175) 
16

>  <PROTECTED>  (1175) 
TRUE

>  <SMILES>  (1175) 
N[C@@H](CCSC)CC(=O)O

>  <INCHIKEY>  (1175) 
QWVNCDVONVDGDV-YFKPBYRVSA-N

$$$$
bhTrp
     RDKit          2D

 16 17  0  0  0  0  0  0  0  0999 V2000
   -2.2204   -1.3731    0.0000 N   0  0  0  0  0  0  0  0  0  0  0  0
   -2.0671    0.1190    0.0000 C   0  0  0  0  0  0  0  0  0  0  0  0
   -0.6982    0.7323    0.0000 C   0  0  0  0  0  0  0  0  0  0  0  0
    0.5173   -0.1465    0.0000 C   0  0  0  0  0  0  0  0  0  0  0  0
    0.5208   -1.6465    0.0000 C   0  0  0  0  0  0  0  0  0  0  0  0
    1.9485   -2.1067    0.0000 N   0  0  0  0  0  0  0  0  0  0  0  0
    2.8273   -0.8912    0.0000 C   0  0  0  0  0  0  0  0  0  0  0  0
    4.3188   -0.7309    0.0000 C   0  0  0  0  0  0  0  0  0  0  0  0
    4.9257    0.6408    0.0000 C   0  0  0  0  0  0  0  0  0  0  0  0
    4.0412    1.8523    0.0000 C   0  0  0  0  0  0  0  0  0  0  0  0
    2.5498    1.6920    0.0000 C   0  0  0  0  0  0  0  0  0  0  0  0
    1.9428    0.3203    0.0000 C   0  0  0  0  0  0  0  0  0  0  0  0
   -3.2827    0.9979    0.0000 C   0  0  0  0  0  0  0  0  0  0  0  0
   -4.6516    0.3846    0.0000 C   0  0  0  0  0  0  0  0  0  0  0  0
   -4.8049   -1.1076    0.0000 O   0  0  0  0  0  0  0  0  0  0  0  0
   -5.8672    1.2634    0.0000 O   0  0  0  0  0  0  0  0  0  0  0  0
  2  1  1  6
  2  3  1  0
  3  4  1  0
  4  5  2  0
  5  6  1  0
  6  7  1  0
  7  8  2  0
  8  9  1  0
  9 10  2  0
 10 11  1  0
 11 12  2  0
  2 13  1  0
 13 14  1  0
 14 15  2  0
 14 16  1  0
 12  4  1  0
 12  7  1  0
M  END
>  <rName>  (1176) 
bhTrp

>  <PQ_SYMBOL>  (1176) 
bhTrp

>  <FULL_NAME>  (1176) 
L-beta-homotryptophan

>  <IUPAC_CONDENSED>  (1176) 
bhTrp

>  <IUPAC>  (1176) 
(3S)-3-amino-4-(1H-indol-3-yl)butanoic acid

>  <TYPE>  (1176) 
Backbone

>  <CLASS>  (1176) 
beta

>  <ANALOG>  (1176) 
Trp

>  <MOL_WT>  (1176) 
218.25599999999997

>  <LOGP>  (1176) 
1.5124000000000004

>  <TPSA>  (1176) 
79.11

>  <POPULARITY>  (1176) 
18.4

>  <PROTECTED>  (1176) 
TRUE

>  <SMILES>  (1176) 
N[C@@H](Cc1(c[nH]c2(ccccc12)))CC(=O)O

>  <INCHIKEY>  (1176) 
DUVVFMLAHWNDJD-VIFPVBQESA-N

$$$$
bAla_3SBuNH2
     RDKit          2D

 11 10  0  0  0  0  0  0  0  0999 V2000
    0.9412   -1.5022    0.0000 N   0  0  0  0  0  0  0  0  0  0  0  0
    0.8294   -0.0064    0.0000 C   0  0  0  0  0  0  0  0  0  0  0  0
   -0.5219    0.6447    0.0000 C   0  0  0  0  0  0  0  0  0  0  0  0
   -1.7614   -0.2000    0.0000 C   0  0  0  0  0  0  0  0  0  0  0  0
   -3.1127    0.4511    0.0000 C   0  0  0  0  0  0  0  0  0  0  0  0
   -4.3523   -0.3937    0.0000 C   0  0  0  0  0  0  0  0  0  0  0  0
   -5.7036    0.2574    0.0000 N   0  0  0  0  0  0  0  0  0  0  0  0
    2.0690    0.8384    0.0000 C   0  0  0  0  0  0  0  0  0  0  0  0
    3.4203    0.1873    0.0000 C   0  0  0  0  0  0  0  0  0  0  0  0
    3.5321   -1.3086    0.0000 O   0  0  0  0  0  0  0  0  0  0  0  0
    4.6598    1.0320    0.0000 O   0  0  0  0  0  0  0  0  0  0  0  0
  2  1  1  1
  2  3  1  0
  3  4  1  0
  4  5  1  0
  5  6  1  0
  6  7  1  0
  2  8  1  0
  8  9  1  0
  9 10  2  0
  9 11  1  0
M  END
>  <rName>  (1177) 
bAla_3SBuNH2

>  <PQ_SYMBOL>  (1177) 
bAla_3SBuNH2

>  <FULL_NAME>  (1177) 
L-beta-homolysine

>  <IUPAC_CONDENSED>  (1177) 
bAla(3S-BuNH2)

>  <IUPAC>  (1177) 
(3S)-3,7-diaminoheptanoic acid

>  <TYPE>  (1177) 
Backbone

>  <CLASS>  (1177) 
beta

>  <ANALOG>  (1177) 
Lys

>  <MOL_WT>  (1177) 
160.217

>  <LOGP>  (1177) 
-0.08260000000000073

>  <TPSA>  (1177) 
89.34

>  <POPULARITY>  (1177) 
24.9

>  <PROTECTED>  (1177) 
TRUE

>  <SMILES>  (1177) 
N[C@@H](CCCCN)CC(=O)O

>  <INCHIKEY>  (1177) 
PJDINCOFOROBQW-LURJTMIESA-N

$$$$
bAla_3RiBu
     RDKit          2D

 10  9  0  0  0  0  0  0  0  0999 V2000
   -0.0000   -1.3500    0.0000 N   0  0  0  0  0  0  0  0  0  0  0  0
   -0.0000    0.1500    0.0000 C   0  0  0  0  0  0  0  0  0  0  0  0
   -1.2990    0.9000    0.0000 C   0  0  0  0  0  0  0  0  0  0  0  0
   -2.5981    0.1500    0.0000 C   0  0  0  0  0  0  0  0  0  0  0  0
   -3.8971    0.9000    0.0000 C   0  0  0  0  0  0  0  0  0  0  0  0
   -2.5981   -1.3500    0.0000 C   0  0  0  0  0  0  0  0  0  0  0  0
    1.2990    0.9000    0.0000 C   0  0  0  0  0  0  0  0  0  0  0  0
    2.5981    0.1500    0.0000 C   0  0  0  0  0  0  0  0  0  0  0  0
    2.5981   -1.3500    0.0000 O   0  0  0  0  0  0  0  0  0  0  0  0
    3.8971    0.9000    0.0000 O   0  0  0  0  0  0  0  0  0  0  0  0
  2  1  1  6
  2  3  1  0
  3  4  1  0
  4  5  1  0
  4  6  1  0
  2  7  1  0
  7  8  1  0
  8  9  2  0
  8 10  1  0
M  END
>  <rName>  (1178) 
bAla_3RiBu

>  <PQ_SYMBOL>  (1178) 
bAla_3RiBu

>  <FULL_NAME>  (1178) 
D-Beta3-Homoleucine

>  <IUPAC_CONDENSED>  (1178) 
bAla(3R-iBu)

>  <IUPAC>  (1178) 
(3R)-3-amino-5-methylhexanoic acid

>  <TYPE>  (1178) 
Backbone

>  <CLASS>  (1178) 
beta

>  <ANALOG>  (1178) 
Leu

>  <MOL_WT>  (1178) 
145.202

>  <LOGP>  (1178) 
0.8344999999999998

>  <TPSA>  (1178) 
63.32000000000001

>  <POPULARITY>  (1178) 
10.2

>  <PROTECTED>  (1178) 
TRUE

>  <SMILES>  (1178) 
N[C@H](CC(C)C)CC(=O)O

>  <INCHIKEY>  (1178) 
MLYMSIKVLAPCAK-ZCFIWIBFSA-N

$$$$
bAla_3RBu
     RDKit          2D

 10  9  0  0  0  0  0  0  0  0999 V2000
   -0.3386    1.4842    0.0000 N   0  0  0  0  0  0  0  0  0  0  0  0
   -0.2594   -0.0137    0.0000 C   0  0  0  0  0  0  0  0  0  0  0  0
    1.0773   -0.6941    0.0000 C   0  0  0  0  0  0  0  0  0  0  0  0
    2.3350    0.1233    0.0000 C   0  0  0  0  0  0  0  0  0  0  0  0
    3.6718   -0.5571    0.0000 C   0  0  0  0  0  0  0  0  0  0  0  0
    4.9295    0.2604    0.0000 C   0  0  0  0  0  0  0  0  0  0  0  0
   -1.5171   -0.8312    0.0000 C   0  0  0  0  0  0  0  0  0  0  0  0
   -2.8539   -0.1507    0.0000 C   0  0  0  0  0  0  0  0  0  0  0  0
   -2.9330    1.3472    0.0000 O   0  0  0  0  0  0  0  0  0  0  0  0
   -4.1116   -0.9682    0.0000 O   0  0  0  0  0  0  0  0  0  0  0  0
  2  1  1  6
  2  3  1  0
  3  4  1  0
  4  5  1  0
  5  6  1  0
  2  7  1  0
  7  8  1  0
  8  9  2  0
  8 10  1  0
M  END
>  <rName>  (1179) 
bAla_3RBu

>  <PQ_SYMBOL>  (1179) 
bAla_3RBu

>  <FULL_NAME>  (1179) 
D-Beta3-Homo-Norleucine

>  <IUPAC_CONDENSED>  (1179) 
bAla(3R-Bu)

>  <IUPAC>  (1179) 
(3R)-3-aminoheptanoic acid

>  <TYPE>  (1179) 
Backbone

>  <CLASS>  (1179) 
beta

>  <ANALOG>  (1179) 
Leu

>  <MOL_WT>  (1179) 
145.202

>  <LOGP>  (1179) 
0.9785999999999997

>  <TPSA>  (1179) 
63.32000000000001

>  <POPULARITY>  (1179) 
15.5

>  <PROTECTED>  (1179) 
TRUE

>  <SMILES>  (1179) 
N[C@H](CCCC)CC(=O)O

>  <INCHIKEY>  (1179) 
FUENJGFCFZKXBX-ZCFIWIBFSA-N

$$$$
bAla_2RiPr
     RDKit          2D

  9  8  0  0  0  0  0  0  0  0999 V2000
    2.2500   -1.5877    0.0000 N   0  0  0  0  0  0  0  0  0  0  0  0
    0.7500   -1.5877    0.0000 C   0  0  0  0  0  0  0  0  0  0  0  0
   -0.0000   -0.2887    0.0000 C   0  0  0  0  0  0  0  0  0  0  0  0
   -1.5000   -0.2887    0.0000 C   0  0  0  0  0  0  0  0  0  0  0  0
   -2.2500    1.0104    0.0000 C   0  0  0  0  0  0  0  0  0  0  0  0
   -2.2500   -1.5877    0.0000 C   0  0  0  0  0  0  0  0  0  0  0  0
    0.7500    1.0104    0.0000 C   0  0  0  0  0  0  0  0  0  0  0  0
    0.0000    2.3094    0.0000 O   0  0  0  0  0  0  0  0  0  0  0  0
    2.2500    1.0104    0.0000 O   0  0  0  0  0  0  0  0  0  0  0  0
  1  2  1  0
  3  2  1  1
  3  4  1  0
  4  5  1  0
  4  6  1  0
  3  7  1  0
  7  8  2  0
  7  9  1  0
M  END
>  <rName>  (1180) 
bAla_2RiPr

>  <PQ_SYMBOL>  (1180) 
bAla_2RiPr

>  <FULL_NAME>  (1180) 
L-Beta2-Leucine, L-Beta2-Homo-Valine

>  <IUPAC_CONDENSED>  (1180) 
bAla(2R-iPr)

>  <IUPAC>  (1180) 
(2R)-2-(aminomethyl)-3-methylbutanoic acid

>  <TYPE>  (1180) 
Backbone

>  <CLASS>  (1180) 
beta

>  <ANALOG>  (1180) 
Val

>  <MOL_WT>  (1180) 
131.175

>  <LOGP>  (1180) 
0.3019000000000002

>  <TPSA>  (1180) 
63.32000000000001

>  <POPULARITY>  (1180) 
13.1

>  <PROTECTED>  (1180) 
TRUE

>  <SMILES>  (1180) 
NC[C@@H](C(C)C)C(=O)O

>  <INCHIKEY>  (1180) 
UUQYMNPVPQLPID-YFKPBYRVSA-N

$$$$
bAla_2SiPr
     RDKit          2D

  9  8  0  0  0  0  0  0  0  0999 V2000
    2.2500   -1.5877    0.0000 N   0  0  0  0  0  0  0  0  0  0  0  0
    0.7500   -1.5877    0.0000 C   0  0  0  0  0  0  0  0  0  0  0  0
   -0.0000   -0.2887    0.0000 C   0  0  0  0  0  0  0  0  0  0  0  0
   -1.5000   -0.2887    0.0000 C   0  0  0  0  0  0  0  0  0  0  0  0
   -2.2500    1.0104    0.0000 C   0  0  0  0  0  0  0  0  0  0  0  0
   -2.2500   -1.5877    0.0000 C   0  0  0  0  0  0  0  0  0  0  0  0
    0.7500    1.0104    0.0000 C   0  0  0  0  0  0  0  0  0  0  0  0
    0.0000    2.3094    0.0000 O   0  0  0  0  0  0  0  0  0  0  0  0
    2.2500    1.0104    0.0000 O   0  0  0  0  0  0  0  0  0  0  0  0
  1  2  1  0
  3  2  1  6
  3  4  1  0
  4  5  1  0
  4  6  1  0
  3  7  1  0
  7  8  2  0
  7  9  1  0
M  END
>  <rName>  (1181) 
bAla_2SiPr

>  <PQ_SYMBOL>  (1181) 
bAla_2SiPr

>  <FULL_NAME>  (1181) 
D-Beta2-Leucine, D-Beta2-Homo-Valine

>  <IUPAC_CONDENSED>  (1181) 
bAla(2S-iPr)

>  <IUPAC>  (1181) 
(2S)-2-(aminomethyl)-3-methylbutanoic acid

>  <TYPE>  (1181) 
Backbone

>  <CLASS>  (1181) 
beta

>  <ANALOG>  (1181) 
Val

>  <MOL_WT>  (1181) 
131.175

>  <LOGP>  (1181) 
0.3019000000000002

>  <TPSA>  (1181) 
63.32000000000001

>  <POPULARITY>  (1181) 
17

>  <PROTECTED>  (1181) 
TRUE

>  <SMILES>  (1181) 
NC[C@H](C(C)C)C(=O)O

>  <INCHIKEY>  (1181) 
UUQYMNPVPQLPID-RXMQYKEDSA-N

$$$$
bLeu_S
     RDKit          2D

  9  8  0  0  0  0  0  0  0  0999 V2000
   -0.2826    1.7410    0.0000 N   0  0  0  0  0  0  0  0  0  0  0  0
   -0.5402    0.2633    0.0000 C   0  0  0  0  0  0  0  0  0  0  0  0
   -1.9487   -0.2525    0.0000 C   0  0  0  0  0  0  0  0  0  0  0  0
   -3.0997    0.7094    0.0000 C   0  0  0  0  0  0  0  0  0  0  0  0
   -2.2062   -1.7302    0.0000 C   0  0  0  0  0  0  0  0  0  0  0  0
    0.6108   -0.6986    0.0000 C   0  0  0  0  0  0  0  0  0  0  0  0
    2.0193   -0.1828    0.0000 C   0  0  0  0  0  0  0  0  0  0  0  0
    2.2769    1.2950    0.0000 O   0  0  0  0  0  0  0  0  0  0  0  0
    3.1703   -1.1447    0.0000 O   0  0  0  0  0  0  0  0  0  0  0  0
  2  1  1  1
  2  3  1  0
  3  4  1  0
  3  5  1  0
  2  6  1  0
  6  7  1  0
  7  8  2  0
  7  9  1  0
M  END
>  <rName>  (1182) 
bLeu_S

>  <PQ_SYMBOL>  (1182) 
bLeu_S

>  <FULL_NAME>  (1182) 
D-Beta-Leucine, D-Beta-Homo-Valine

>  <IUPAC_CONDENSED>  (1182) 
bLeu(S)

>  <IUPAC>  (1182) 
(3S)-3-amino-4-methylpentanoic acid

>  <TYPE>  (1182) 
Backbone

>  <CLASS>  (1182) 
beta

>  <ANALOG>  (1182) 
Val

>  <MOL_WT>  (1182) 
131.175

>  <LOGP>  (1182) 
0.44439999999999985

>  <TPSA>  (1182) 
63.32000000000001

>  <POPULARITY>  (1182) 
15.4

>  <PROTECTED>  (1182) 
TRUE

>  <SMILES>  (1182) 
N[C@H](C(C)C)CC(=O)O

>  <INCHIKEY>  (1182) 
GLUJNGJDHCTUJY-YFKPBYRVSA-N

$$$$
bAla_2RCH2OH
     RDKit          2D

  8  7  0  0  0  0  0  0  0  0999 V2000
   -2.5981   -0.5625    0.0000 N   0  0  0  0  0  0  0  0  0  0  0  0
   -1.2990   -1.3125    0.0000 C   0  0  0  0  0  0  0  0  0  0  0  0
    0.0000   -0.5625    0.0000 C   0  0  0  0  0  0  0  0  0  0  0  0
    1.2990   -1.3125    0.0000 C   0  0  0  0  0  0  0  0  0  0  0  0
    2.5981   -0.5625    0.0000 O   0  0  0  0  0  0  0  0  0  0  0  0
    0.0000    0.9375    0.0000 C   0  0  0  0  0  0  0  0  0  0  0  0
   -1.2990    1.6875    0.0000 O   0  0  0  0  0  0  0  0  0  0  0  0
    1.2990    1.6875    0.0000 O   0  0  0  0  0  0  0  0  0  0  0  0
  1  2  1  0
  3  2  1  6
  3  4  1  0
  4  5  1  0
  3  6  1  0
  6  7  2  0
  6  8  1  0
M  END
>  <rName>  (1183) 
bAla_2RCH2OH

>  <PQ_SYMBOL>  (1183) 
bAla_2RCH2OH

>  <FULL_NAME>  (1183) 
L-Beta2-Homo-serine

>  <IUPAC_CONDENSED>  (1183) 
bAla(2R-CH2OH)

>  <IUPAC>  (1183) 
(2S)-3-amino-2-(hydroxymethyl)propanoic acid

>  <TYPE>  (1183) 
Backbone

>  <CLASS>  (1183) 
beta

>  <ANALOG>  (1183) 
Ser

>  <MOL_WT>  (1183) 
119.11999999999998

>  <LOGP>  (1183) 
-1.3618

>  <TPSA>  (1183) 
83.55

>  <POPULARITY>  (1183) 
16.7

>  <PROTECTED>  (1183) 
TRUE

>  <SMILES>  (1183) 
NC[C@@H](CO)C(=O)O

>  <INCHIKEY>  (1183) 
UHLNJPIGFDWGTP-VKHMYHEASA-N

$$$$
bAla_2SCH2OH
     RDKit          2D

  8  7  0  0  0  0  0  0  0  0999 V2000
   -2.5981   -0.5625    0.0000 N   0  0  0  0  0  0  0  0  0  0  0  0
   -1.2990   -1.3125    0.0000 C   0  0  0  0  0  0  0  0  0  0  0  0
    0.0000   -0.5625    0.0000 C   0  0  0  0  0  0  0  0  0  0  0  0
    1.2990   -1.3125    0.0000 C   0  0  0  0  0  0  0  0  0  0  0  0
    2.5981   -0.5625    0.0000 O   0  0  0  0  0  0  0  0  0  0  0  0
    0.0000    0.9375    0.0000 C   0  0  0  0  0  0  0  0  0  0  0  0
   -1.2990    1.6875    0.0000 O   0  0  0  0  0  0  0  0  0  0  0  0
    1.2990    1.6875    0.0000 O   0  0  0  0  0  0  0  0  0  0  0  0
  1  2  1  0
  3  2  1  1
  3  4  1  0
  4  5  1  0
  3  6  1  0
  6  7  2  0
  6  8  1  0
M  END
>  <rName>  (1184) 
bAla_2SCH2OH

>  <PQ_SYMBOL>  (1184) 
bAla_2SCH2OH

>  <FULL_NAME>  (1184) 
D-Beta2-Homo-serine

>  <IUPAC_CONDENSED>  (1184) 
bAla(2S-CH2OH)

>  <IUPAC>  (1184) 
(2R)-3-amino-2-(hydroxymethyl)propanoic acid

>  <TYPE>  (1184) 
Backbone

>  <CLASS>  (1184) 
beta

>  <ANALOG>  (1184) 
Ser

>  <MOL_WT>  (1184) 
119.11999999999998

>  <LOGP>  (1184) 
-1.3618

>  <TPSA>  (1184) 
83.55

>  <POPULARITY>  (1184) 
13.4

>  <PROTECTED>  (1184) 
TRUE

>  <SMILES>  (1184) 
NC[C@H](CO)C(=O)O

>  <INCHIKEY>  (1184) 
UHLNJPIGFDWGTP-GSVOUGTGSA-N

$$$$
bAib_S
     RDKit          2D

  7  6  0  0  0  0  0  0  0  0999 V2000
   -2.2500   -0.5567    0.0000 N   0  0  0  0  0  0  0  0  0  0  0  0
   -1.5000    0.7423    0.0000 C   0  0  0  0  0  0  0  0  0  0  0  0
   -0.0000    0.7423    0.0000 C   0  0  0  0  0  0  0  0  0  0  0  0
    0.7500    2.0413    0.0000 C   0  0  0  0  0  0  0  0  0  0  0  0
    0.7500   -0.5567    0.0000 C   0  0  0  0  0  0  0  0  0  0  0  0
    2.2500   -0.5567    0.0000 O   0  0  0  0  0  0  0  0  0  0  0  0
    0.0000   -1.8558    0.0000 O   0  0  0  0  0  0  0  0  0  0  0  0
  1  2  1  0
  2  3  1  0
  3  4  1  6
  3  5  1  0
  5  6  2  0
  5  7  1  0
M  END
>  <rName>  (1185) 
bAib_S

>  <PQ_SYMBOL>  (1185) 
bAib_S

>  <FULL_NAME>  (1185) 
L-Beta2-Homo-Alanine

>  <IUPAC_CONDENSED>  (1185) 
bAib(S)

>  <IUPAC>  (1185) 
(2S)-3-amino-2-methylpropanoic acid

>  <TYPE>  (1185) 
Backbone

>  <CLASS>  (1185) 
beta

>  <ANALOG>  (1185) 
Ala

>  <MOL_WT>  (1185) 
103.12099999999998

>  <LOGP>  (1185) 
-0.3342000000000001

>  <TPSA>  (1185) 
63.32000000000001

>  <POPULARITY>  (1185) 
20.6

>  <PROTECTED>  (1185) 
TRUE

>  <SMILES>  (1185) 
NC[C@H](C)C(=O)O

>  <INCHIKEY>  (1185) 
QCHPKSFMDHPSNR-VKHMYHEASA-N

$$$$
bAla_3SCH2NHMe
     RDKit          2D

  9  9  0  0  0  0  0  0  0  0999 V2000
   -0.5115   -2.3139    0.0000 N   0  0  0  0  0  0  0  0  0  0  0  0
   -0.8624   -0.8555    0.0000 C   0  0  0  0  0  0  0  0  0  0  0  0
    0.1113    0.2855    0.0000 C   0  0  0  0  0  0  0  0  0  0  0  0
   -0.6730    1.5641    0.0000 C   0  0  0  0  0  0  0  0  0  0  0  0
   -2.1314    1.2133    0.0000 N   0  0  0  0  0  0  0  0  0  0  0  0
   -2.2485   -0.2821    0.0000 C   0  0  0  0  0  0  0  0  0  0  0  0
    1.6067    0.1685    0.0000 C   0  0  0  0  0  0  0  0  0  0  0  0
    2.4558    1.4051    0.0000 O   0  0  0  0  0  0  0  0  0  0  0  0
    2.2531   -1.1851    0.0000 O   0  0  0  0  0  0  0  0  0  0  0  0
  2  1  1  6
  2  3  1  0
  3  4  1  0
  4  5  1  0
  5  6  1  0
  3  7  1  1
  7  8  2  0
  7  9  1  0
  6  2  1  0
M  END
>  <rName>  (1186) 
bAla_3SCH2NHMe

>  <PQ_SYMBOL>  (1186) 
bAla_3SCH2NHMe

>  <FULL_NAME>  (1186) 
trans-3-aminopyrrolidine-4-carboxylic acid

>  <IUPAC_CONDENSED>  (1186) 
bAla(3S-CH2NHMe)

>  <IUPAC>  (1186) 
(3R,4S)-4-aminopyrrolidine-3-carboxylic acid

>  <TYPE>  (1186) 
Backbone

>  <CLASS>  (1186) 
beta

>  <ANALOG>  (1186) 
X

>  <MOL_WT>  (1186) 
130.147

>  <LOGP>  (1186) 
-1.3822999999999994

>  <TPSA>  (1186) 
75.35

>  <POPULARITY>  (1186) 
5.4

>  <PROTECTED>  (1186) 
TRUE

>  <SMILES>  (1186) 
N[C@H]1[C@@H](CNC1)C(=O)O

>  <INCHIKEY>  (1186) 
RMNHPXDNGOBDOT-QWWZWVQMSA-N

$$$$
aMeCys
     RDKit          2D

  8  7  0  0  0  0  0  0  0  0999 V2000
    1.7991   -0.6794    0.0000 N   0  0  0  0  0  0  0  0  0  0  0  0
    0.6991    0.3404    0.0000 C   0  0  0  0  0  0  0  0  0  0  0  0
    1.7189    1.4404    0.0000 C   0  0  0  0  0  0  0  0  0  0  0  0
   -0.4009    1.3602    0.0000 C   0  0  0  0  0  0  0  0  0  0  0  0
   -1.8341    0.9174    0.0000 S   0  0  0  0  0  0  0  0  0  0  0  0
   -0.3207   -0.7596    0.0000 C   0  0  0  0  0  0  0  0  0  0  0  0
   -1.7833   -0.4265    0.0000 O   0  0  0  0  0  0  0  0  0  0  0  0
    0.1220   -2.1928    0.0000 O   0  0  0  0  0  0  0  0  0  0  0  0
  1  2  1  0
  2  3  1  1
  2  4  1  0
  4  5  1  0
  2  6  1  0
  6  7  2  0
  6  8  1  0
M  END
>  <rName>  (1187) 
aMeCys

>  <PQ_SYMBOL>  (1187) 
aMeCys

>  <FULL_NAME>  (1187) 
2-methyl-L-cysteine

>  <IUPAC_CONDENSED>  (1187) 
aMeCys

>  <IUPAC>  (1187) 
(2R)-2-amino-2-(sulfanylmethyl)propanoic acid

>  <TYPE>  (1187) 
Backbone

>  <CLASS>  (1187) 
alpha

>  <ANALOG>  (1187) 
Cys

>  <MOL_WT>  (1187) 
135.188

>  <LOGP>  (1187) 
-0.28180000000000033

>  <TPSA>  (1187) 
63.32000000000001

>  <POPULARITY>  (1187) 
13

>  <PROTECTED>  (1187) 
TRUE

>  <SMILES>  (1187) 
N[C@@](C)(CS)C(=O)O

>  <INCHIKEY>  (1187) 
NZBONMFLYFGTAC-BYPYZUCNSA-N

$$$$
Phe_4OCF3
     RDKit          2D

 17 17  0  0  0  0  0  0  0  0999 V2000
   -3.1457    1.6694    0.0000 N   0  0  0  0  0  0  0  0  0  0  0  0
   -3.4800    0.2071    0.0000 C   0  0  0  0  0  0  0  0  0  0  0  0
   -2.3807   -0.8135    0.0000 C   0  0  0  0  0  0  0  0  0  0  0  0
   -0.9472   -0.3718    0.0000 C   0  0  0  0  0  0  0  0  0  0  0  0
   -0.6130    1.0905    0.0000 C   0  0  0  0  0  0  0  0  0  0  0  0
    0.8205    1.5322    0.0000 C   0  0  0  0  0  0  0  0  0  0  0  0
    1.9198    0.5116    0.0000 C   0  0  0  0  0  0  0  0  0  0  0  0
    3.3533    0.9532    0.0000 O   0  0  0  0  0  0  0  0  0  0  0  0
    4.4525   -0.0674    0.0000 C   0  0  0  0  0  0  0  0  0  0  0  0
    5.5518   -1.0880    0.0000 F   0  0  0  0  0  0  0  0  0  0  0  0
    5.4731    1.0319    0.0000 F   0  0  0  0  0  0  0  0  0  0  0  0
    3.4319   -1.1666    0.0000 F   0  0  0  0  0  0  0  0  0  0  0  0
    1.5855   -0.9507    0.0000 C   0  0  0  0  0  0  0  0  0  0  0  0
    0.1520   -1.3924    0.0000 C   0  0  0  0  0  0  0  0  0  0  0  0
   -4.9135   -0.2346    0.0000 C   0  0  0  0  0  0  0  0  0  0  0  0
   -5.2477   -1.6969    0.0000 O   0  0  0  0  0  0  0  0  0  0  0  0
   -6.0127    0.7860    0.0000 O   0  0  0  0  0  0  0  0  0  0  0  0
  2  1  1  1
  2  3  1  0
  3  4  1  0
  4  5  1  0
  5  6  2  0
  6  7  1  0
  7  8  1  0
  8  9  1  0
  9 10  1  0
  9 11  1  0
  9 12  1  0
  7 13  2  0
 13 14  1  0
  2 15  1  0
 15 16  2  0
 15 17  1  0
 14  4  2  0
M  END
>  <rName>  (1188) 
Phe_4OCF3

>  <PQ_SYMBOL>  (1188) 
Phe_4OCF3

>  <FULL_NAME>  (1188) 
(2S)-2-amino-3-[4-(trifluoromethoxy)phenyl]propanal

>  <IUPAC_CONDENSED>  (1188) 
Tyr(CF3)

>  <IUPAC>  (1188) 
(2S)-2-amino-3-(4-((trifluoromethyl)oxy)phenyl)propanoic acid

>  <TYPE>  (1188) 
Backbone

>  <CLASS>  (1188) 
alpha

>  <ANALOG>  (1188) 
Tyr

>  <MOL_WT>  (1188) 
249.18799999999996

>  <LOGP>  (1188) 
1.5396000000000003

>  <TPSA>  (1188) 
72.55

>  <POPULARITY>  (1188) 
9.4

>  <PROTECTED>  (1188) 
TRUE

>  <SMILES>  (1188) 
N[C@@H](Cc1(ccc(OC(F)(F)F)cc1))C(=O)O

>  <INCHIKEY>  (1188) 
YZXUCQCJZKJMIR-QMMMGPOBSA-N

$$$$
D-Cys_Me
     RDKit          2D

  8  7  0  0  0  0  0  0  0  0999 V2000
   -0.2517   -1.8862    0.0000 N   0  0  0  0  0  0  0  0  0  0  0  0
   -0.3100   -0.3873    0.0000 C   0  0  0  0  0  0  0  0  0  0  0  0
    0.9590    0.4126    0.0000 C   0  0  0  0  0  0  0  0  0  0  0  0
    2.2862   -0.2864    0.0000 S   0  0  0  0  0  0  0  0  0  0  0  0
    3.5551    0.5134    0.0000 C   0  0  0  0  0  0  0  0  0  0  0  0
   -1.6371    0.3117    0.0000 C   0  0  0  0  0  0  0  0  0  0  0  0
   -1.6954    1.8105    0.0000 O   0  0  0  0  0  0  0  0  0  0  0  0
   -2.9061   -0.4882    0.0000 O   0  0  0  0  0  0  0  0  0  0  0  0
  2  1  1  1
  2  3  1  0
  3  4  1  0
  4  5  1  0
  2  6  1  0
  6  7  2  0
  6  8  1  0
M  END
>  <rName>  (1189) 
D-Cys_Me

>  <PQ_SYMBOL>  (1189) 
D-Cys_Me

>  <FULL_NAME>  (1189) 
S-methyl-D-cysteine

>  <IUPAC_CONDENSED>  (1189) 
D-Cys(Me)

>  <IUPAC>  (1189) 
(2S)-2-amino-3-(methylsulfanyl)propanoic acid

>  <TYPE>  (1189) 
Backbone

>  <CLASS>  (1189) 
alpha

>  <ANALOG>  (1189) 
Cys

>  <MOL_WT>  (1189) 
135.188

>  <LOGP>  (1189) 
-0.2387000000000002

>  <TPSA>  (1189) 
63.32000000000001

>  <POPULARITY>  (1189) 
19.2

>  <PROTECTED>  (1189) 
TRUE

>  <SMILES>  (1189) 
N[C@H](CSC)C(=O)O

>  <INCHIKEY>  (1189) 
IDIDJDIHTAOVLG-GSVOUGTGSA-N

$$$$
aMeGaba
     RDKit          2D

  8  7  0  0  0  0  0  0  0  0999 V2000
    2.2678   -1.4730    0.0000 N   0  0  0  0  0  0  0  0  0  0  0  0
    1.9843   -0.0000    0.0000 C   0  0  0  0  0  0  0  0  0  0  0  0
    3.1182    0.9820    0.0000 C   0  0  0  0  0  0  0  0  0  0  0  0
    0.5669    0.4910    0.0000 C   0  0  0  0  0  0  0  0  0  0  0  0
   -0.5669   -0.4910    0.0000 C   0  0  0  0  0  0  0  0  0  0  0  0
   -1.9843    0.0000    0.0000 C   0  0  0  0  0  0  0  0  0  0  0  0
   -2.2678    1.4730    0.0000 O   0  0  0  0  0  0  0  0  0  0  0  0
   -3.1182   -0.9820    0.0000 O   0  0  0  0  0  0  0  0  0  0  0  0
  1  2  1  0
  2  3  1  6
  2  4  1  0
  4  5  1  0
  5  6  1  0
  6  7  2  0
  6  8  1  0
M  END
>  <rName>  (1190) 
aMeGaba

>  <PQ_SYMBOL>  (1190) 
aMeGaba

>  <FULL_NAME>  (1190) 
(4S)-4-aminopentanoic acid

>  <IUPAC_CONDENSED>  (1190) 
aMeGaba

>  <IUPAC>  (1190) 
(4S)-4-aminopentanoic acid

>  <TYPE>  (1190) 
Backbone

>  <CLASS>  (1190) 
gamma

>  <ANALOG>  (1190) 
Ala

>  <MOL_WT>  (1190) 
117.14799999999998

>  <LOGP>  (1190) 
0.19839999999999985

>  <TPSA>  (1190) 
63.32000000000001

>  <POPULARITY>  (1190) 
22.2

>  <PROTECTED>  (1190) 
TRUE

>  <SMILES>  (1190) 
N[C@@H](C)CCC(=O)O

>  <INCHIKEY>  (1190) 
ABSTXSZPGHDTAF-BYPYZUCNSA-N

$$$$
D-aMeLys
     RDKit          2D

 11 10  0  0  0  0  0  0  0  0999 V2000
   -0.6186    1.8190    0.0000 N   0  0  0  0  0  0  0  0  0  0  0  0
   -1.4256    0.5545    0.0000 C   0  0  0  0  0  0  0  0  0  0  0  0
   -2.6900    1.3614    0.0000 C   0  0  0  0  0  0  0  0  0  0  0  0
   -0.1611   -0.2524    0.0000 C   0  0  0  0  0  0  0  0  0  0  0  0
    1.1700    0.4391    0.0000 C   0  0  0  0  0  0  0  0  0  0  0  0
    2.4344   -0.3678    0.0000 C   0  0  0  0  0  0  0  0  0  0  0  0
    3.7655    0.3238    0.0000 C   0  0  0  0  0  0  0  0  0  0  0  0
    5.0299   -0.4832    0.0000 N   0  0  0  0  0  0  0  0  0  0  0  0
   -2.2325   -0.7100    0.0000 C   0  0  0  0  0  0  0  0  0  0  0  0
   -3.7310   -0.6433    0.0000 O   0  0  0  0  0  0  0  0  0  0  0  0
   -1.5409   -2.0410    0.0000 O   0  0  0  0  0  0  0  0  0  0  0  0
  1  2  1  0
  2  3  1  1
  2  4  1  0
  4  5  1  0
  5  6  1  0
  6  7  1  0
  7  8  1  0
  2  9  1  0
  9 10  2  0
  9 11  1  0
M  END
>  <rName>  (1191) 
D-aMeLys

>  <PQ_SYMBOL>  (1191) 
D-aMeLys

>  <FULL_NAME>  (1191) 
2-methyl-D-lysine

>  <IUPAC_CONDENSED>  (1191) 
D-aMeLys

>  <IUPAC>  (1191) 
(2R)-2,6-diamino-2-methylhexanoic acid

>  <TYPE>  (1191) 
Backbone

>  <CLASS>  (1191) 
alpha

>  <ANALOG>  (1191) 
Lys

>  <MOL_WT>  (1191) 
160.217

>  <LOGP>  (1191) 
-0.08260000000000067

>  <TPSA>  (1191) 
89.34

>  <POPULARITY>  (1191) 
11

>  <PROTECTED>  (1191) 
TRUE

>  <SMILES>  (1191) 
N[C@](C)(CCCCN)C(=O)O

>  <INCHIKEY>  (1191) 
CPUSCHYXEUZMSV-SSDOTTSWSA-N

$$$$
D-Ac3c_2Svinyl
     RDKit          2D

  9  9  0  0  0  0  0  0  0  0999 V2000
    0.3983   -1.6716    0.0000 N   0  0  0  0  0  0  0  0  0  0  0  0
    0.3407   -0.1727    0.0000 C   0  0  0  0  0  0  0  0  0  0  0  0
   -0.2262    1.2161    0.0000 C   0  0  0  0  0  0  0  0  0  0  0  0
   -1.1455    0.0308    0.0000 C   0  0  0  0  0  0  0  0  0  0  0  0
   -2.5342   -0.5360    0.0000 C   0  0  0  0  0  0  0  0  0  0  0  0
   -3.7195    0.3833    0.0000 C   0  0  0  0  0  0  0  0  0  0  0  0
    1.8068    0.1444    0.0000 C   0  0  0  0  0  0  0  0  0  0  0  0
    2.2652    1.5726    0.0000 O   0  0  0  0  0  0  0  0  0  0  0  0
    2.8144   -0.9668    0.0000 O   0  0  0  0  0  0  0  0  0  0  0  0
  2  1  1  1
  2  3  1  0
  3  4  1  0
  4  5  1  6
  5  6  2  0
  2  7  1  0
  7  8  2  0
  7  9  1  0
  4  2  1  0
M  END
>  <rName>  (1192) 
D-Ac3c_2Svinyl

>  <PQ_SYMBOL>  (1192) 
D-Ac3c_2Svinyl

>  <FULL_NAME>  (1192) 
(1R,2S)-1-amino-2-ethenylcyclopropanecarboxylic acid

>  <IUPAC_CONDENSED>  (1192) 
D-Ac3c(2S-vinyl)

>  <IUPAC>  (1192) 
(1R,2S)-1-amino-2-ethenylcyclopropanecarboxylic acid

>  <TYPE>  (1192) 
Backbone

>  <CLASS>  (1192) 
alpha

>  <ANALOG>  (1192) 
X

>  <MOL_WT>  (1192) 
127.14299999999999

>  <LOGP>  (1192) 
-0.025600000000000345

>  <TPSA>  (1192) 
63.32000000000001

>  <POPULARITY>  (1192) 
14.3

>  <PROTECTED>  (1192) 
TRUE

>  <SMILES>  (1192) 
N[C@@]1(C[C@H]1C=C)C(=O)O

>  <INCHIKEY>  (1192) 
GALLMPFNVWUCGD-INEUFUBQSA-N

$$$$
Ala_thien2yl_5Br
     RDKit          2D

 12 12  0  0  0  0  0  0  0  0999 V2000
   -1.1070    1.6556    0.0000 N   0  0  0  0  0  0  0  0  0  0  0  0
   -1.6374    0.2525    0.0000 C   0  0  0  0  0  0  0  0  0  0  0  0
   -0.6875   -0.9084    0.0000 C   0  0  0  0  0  0  0  0  0  0  0  0
    0.7928   -0.6662    0.0000 C   0  0  0  0  0  0  0  0  0  0  0  0
    1.8589   -1.7215    0.0000 C   0  0  0  0  0  0  0  0  0  0  0  0
    3.1919   -1.0337    0.0000 C   0  0  0  0  0  0  0  0  0  0  0  0
    2.9497    0.4466    0.0000 C   0  0  0  0  0  0  0  0  0  0  0  0
    4.0050    1.5127    0.0000 Br  0  0  0  0  0  0  0  0  0  0  0  0
    1.4670    0.6737    0.0000 S   0  0  0  0  0  0  0  0  0  0  0  0
   -3.1177    0.0103    0.0000 C   0  0  0  0  0  0  0  0  0  0  0  0
   -3.6481   -1.3928    0.0000 O   0  0  0  0  0  0  0  0  0  0  0  0
   -4.0676    1.1712    0.0000 O   0  0  0  0  0  0  0  0  0  0  0  0
  2  1  1  1
  2  3  1  0
  3  4  1  0
  4  5  2  0
  5  6  1  0
  6  7  2  0
  7  8  1  0
  7  9  1  0
  2 10  1  0
 10 11  2  0
 10 12  1  0
  9  4  1  0
M  END
>  <rName>  (1193) 
Ala_thien2yl_5Br

>  <PQ_SYMBOL>  (1193) 
Ala_thien2yl_5Br

>  <FULL_NAME>  (1193) 
3-(5-bromothiophen-2-yl)-L-alanine

>  <IUPAC_CONDENSED>  (1193) 
Ala(thien-2-yl(5-Br))

>  <IUPAC>  (1193) 
(2S)-2-amino-3-(5-bromothiophen-2-yl)propanoic acid

>  <TYPE>  (1193) 
Backbone

>  <CLASS>  (1193) 
alpha

>  <ANALOG>  (1193) 
Phe

>  <MOL_WT>  (1193) 
250.11699999999996

>  <LOGP>  (1193) 
1.465

>  <TPSA>  (1193) 
63.32000000000001

>  <POPULARITY>  (1193) 
10.9

>  <PROTECTED>  (1193) 
TRUE

>  <SMILES>  (1193) 
N[C@@H](Cc1(ccc(Br)s1))C(=O)O

>  <INCHIKEY>  (1193) 
LKORPMMOJAJYLC-YFKPBYRVSA-N

$$$$
D-Tyr_3Cl
     RDKit          2D

 14 14  0  0  0  0  0  0  0  0999 V2000
   -2.0094    1.6916    0.0000 N   0  0  0  0  0  0  0  0  0  0  0  0
   -2.3243    0.2250    0.0000 C   0  0  0  0  0  0  0  0  0  0  0  0
   -1.2116   -0.7809    0.0000 C   0  0  0  0  0  0  0  0  0  0  0  0
    0.2159   -0.3203    0.0000 C   0  0  0  0  0  0  0  0  0  0  0  0
    0.5308    1.1463    0.0000 C   0  0  0  0  0  0  0  0  0  0  0  0
    1.9583    1.6069    0.0000 C   0  0  0  0  0  0  0  0  0  0  0  0
    3.0710    0.6009    0.0000 C   0  0  0  0  0  0  0  0  0  0  0  0
    4.4985    1.0615    0.0000 O   0  0  0  0  0  0  0  0  0  0  0  0
    2.7561   -0.8657    0.0000 C   0  0  0  0  0  0  0  0  0  0  0  0
    3.8688   -1.8716    0.0000 Cl  0  0  0  0  0  0  0  0  0  0  0  0
    1.3286   -1.3263    0.0000 C   0  0  0  0  0  0  0  0  0  0  0  0
   -3.7518   -0.2356    0.0000 C   0  0  0  0  0  0  0  0  0  0  0  0
   -4.0666   -1.7022    0.0000 O   0  0  0  0  0  0  0  0  0  0  0  0
   -4.8644    0.7704    0.0000 O   0  0  0  0  0  0  0  0  0  0  0  0
  2  1  1  6
  2  3  1  0
  3  4  1  0
  4  5  1  0
  5  6  2  0
  6  7  1  0
  7  8  1  0
  7  9  2  0
  9 10  1  0
  9 11  1  0
  2 12  1  0
 12 13  2  0
 12 14  1  0
 11  4  2  0
M  END
>  <rName>  (1194) 
D-Tyr_3Cl

>  <PQ_SYMBOL>  (1194) 
D-Tyr_3Cl

>  <FULL_NAME>  (1194) 
3-chloro-D-tyrosine

>  <IUPAC_CONDENSED>  (1194) 
D-Tyr(3-Cl)

>  <IUPAC>  (1194) 
(2R)-2-amino-3-(3-chloro-4-hydroxyphenyl)propanoic acid

>  <TYPE>  (1194) 
Backbone

>  <CLASS>  (1194) 
alpha

>  <ANALOG>  (1194) 
Tyr

>  <MOL_WT>  (1194) 
215.63599999999997

>  <LOGP>  (1194) 
1

>  <TPSA>  (1194) 
83.55

>  <POPULARITY>  (1194) 
20.4

>  <PROTECTED>  (1194) 
TRUE

>  <SMILES>  (1194) 
N[C@H](Cc1(ccc(O)c(Cl)c1))C(=O)O

>  <INCHIKEY>  (1194) 
ACWBBAGYTKWBCD-SSDOTTSWSA-N

$$$$
Phe_4Ac
     RDKit          2D

 15 15  0  0  0  0  0  0  0  0999 V2000
   -2.2547    1.6872    0.0000 N   0  0  0  0  0  0  0  0  0  0  0  0
   -2.7489    0.2709    0.0000 C   0  0  0  0  0  0  0  0  0  0  0  0
   -1.7696   -0.8652    0.0000 C   0  0  0  0  0  0  0  0  0  0  0  0
   -0.2959   -0.5852    0.0000 C   0  0  0  0  0  0  0  0  0  0  0  0
    0.1983    0.8311    0.0000 C   0  0  0  0  0  0  0  0  0  0  0  0
    1.6719    1.1111    0.0000 C   0  0  0  0  0  0  0  0  0  0  0  0
    2.6513   -0.0250    0.0000 C   0  0  0  0  0  0  0  0  0  0  0  0
    2.1570   -1.4413    0.0000 C   0  0  0  0  0  0  0  0  0  0  0  0
    0.6834   -1.7213    0.0000 C   0  0  0  0  0  0  0  0  0  0  0  0
    4.1249    0.2550    0.0000 C   0  0  0  0  0  0  0  0  0  0  0  0
    4.6192    1.6713    0.0000 O   0  0  0  0  0  0  0  0  0  0  0  0
    5.1043   -0.8811    0.0000 C   0  0  0  0  0  0  0  0  0  0  0  0
   -4.2225   -0.0091    0.0000 C   0  0  0  0  0  0  0  0  0  0  0  0
   -4.7168   -1.4254    0.0000 O   0  0  0  0  0  0  0  0  0  0  0  0
   -5.2019    1.1270    0.0000 O   0  0  0  0  0  0  0  0  0  0  0  0
  2  1  1  1
  2  3  1  0
  3  4  1  0
  4  5  1  0
  5  6  2  0
  6  7  1  0
  7  8  2  0
  8  9  1  0
  7 10  1  0
 10 11  2  0
 10 12  1  0
  2 13  1  0
 13 14  2  0
 13 15  1  0
  9  4  2  0
M  END
>  <rName>  (1195) 
Phe_4Ac

>  <PQ_SYMBOL>  (1195) 
Phe_4Ac

>  <FULL_NAME>  (1195) 
4-ACETYL-L-PHENYLALANINE

>  <IUPAC_CONDENSED>  (1195) 
Phe(4-Ac)

>  <IUPAC>  (1195) 
(2S)-3-(4-(acetyl)phenyl)-2-aminopropanoic acid

>  <TYPE>  (1195) 
Backbone

>  <CLASS>  (1195) 
alpha

>  <ANALOG>  (1195) 
Phe

>  <MOL_WT>  (1195) 
207.22899999999996

>  <LOGP>  (1195) 
0.8435999999999999

>  <TPSA>  (1195) 
80.39

>  <POPULARITY>  (1195) 
16.5

>  <PROTECTED>  (1195) 
TRUE

>  <SMILES>  (1195) 
N[C@@H](Cc1(ccc(cc1)C(=O)C))C(=O)O

>  <INCHIKEY>  (1195) 
ZXSBHXZKWRIEIA-JTQLQIEISA-N

$$$$
bAla_2RiBu
     RDKit          2D

 10  9  0  0  0  0  0  0  0  0999 V2000
    3.1802    0.8418    0.0000 N   0  0  0  0  0  0  0  0  0  0  0  0
    1.8138    1.4604    0.0000 C   0  0  0  0  0  0  0  0  0  0  0  0
    0.5948    0.5863    0.0000 C   0  0  0  0  0  0  0  0  0  0  0  0
   -0.7717    1.2050    0.0000 C   0  0  0  0  0  0  0  0  0  0  0  0
   -1.9907    0.3309    0.0000 C   0  0  0  0  0  0  0  0  0  0  0  0
   -3.3572    0.9495    0.0000 C   0  0  0  0  0  0  0  0  0  0  0  0
   -1.8433   -1.1619    0.0000 C   0  0  0  0  0  0  0  0  0  0  0  0
    0.7422   -0.9064    0.0000 C   0  0  0  0  0  0  0  0  0  0  0  0
   -0.4768   -1.7805    0.0000 O   0  0  0  0  0  0  0  0  0  0  0  0
    2.1087   -1.5251    0.0000 O   0  0  0  0  0  0  0  0  0  0  0  0
  1  2  1  0
  3  2  1  6
  3  4  1  0
  4  5  1  0
  5  6  1  0
  5  7  1  0
  3  8  1  0
  8  9  2  0
  8 10  1  0
M  END
>  <rName>  (1196) 
bAla_2RiBu

>  <PQ_SYMBOL>  (1196) 
bAla_2RiBu

>  <FULL_NAME>  (1196) 
(2R)-2-(aminomethyl)-4-methylpentanoic acid

>  <IUPAC_CONDENSED>  (1196) 
bAla(2R-iBu)

>  <IUPAC>  (1196) 
(2R)-2-(aminomethyl)-4-methylpentanoic acid

>  <TYPE>  (1196) 
Backbone

>  <CLASS>  (1196) 
beta

>  <ANALOG>  (1196) 
Leu

>  <MOL_WT>  (1196) 
145.202

>  <LOGP>  (1196) 
0.6920000000000002

>  <TPSA>  (1196) 
63.32000000000001

>  <POPULARITY>  (1196) 
16.5

>  <PROTECTED>  (1196) 
TRUE

>  <SMILES>  (1196) 
NC[C@@H](CC(C)C)C(=O)O

>  <INCHIKEY>  (1196) 
IAXQYBCPMFDMOJ-ZCFIWIBFSA-N

$$$$
Phe_4ethynyl
     RDKit          2D

 14 14  0  0  0  0  0  0  0  0999 V2000
   -1.9640    1.7008    0.0000 N   0  0  0  0  0  0  0  0  0  0  0  0
   -2.4550    0.2835    0.0000 C   0  0  0  0  0  0  0  0  0  0  0  0
   -1.4730   -0.8504    0.0000 C   0  0  0  0  0  0  0  0  0  0  0  0
   -0.0000   -0.5669    0.0000 C   0  0  0  0  0  0  0  0  0  0  0  0
    0.4910    0.8504    0.0000 C   0  0  0  0  0  0  0  0  0  0  0  0
    1.9640    1.1339    0.0000 C   0  0  0  0  0  0  0  0  0  0  0  0
    2.9459    0.0000    0.0000 C   0  0  0  0  0  0  0  0  0  0  0  0
    4.4189    0.2835    0.0000 C   0  0  0  0  0  0  0  0  0  0  0  0
    5.8919    0.5669    0.0000 C   0  0  0  0  0  0  0  0  0  0  0  0
    2.4550   -1.4174    0.0000 C   0  0  0  0  0  0  0  0  0  0  0  0
    0.9820   -1.7008    0.0000 C   0  0  0  0  0  0  0  0  0  0  0  0
   -3.9279   -0.0000    0.0000 C   0  0  0  0  0  0  0  0  0  0  0  0
   -4.4189   -1.4174    0.0000 O   0  0  0  0  0  0  0  0  0  0  0  0
   -4.9099    1.1339    0.0000 O   0  0  0  0  0  0  0  0  0  0  0  0
  2  1  1  1
  2  3  1  0
  3  4  1  0
  4  5  1  0
  5  6  2  0
  6  7  1  0
  7  8  1  0
  8  9  3  0
  7 10  2  0
 10 11  1  0
  2 12  1  0
 12 13  2  0
 12 14  1  0
 11  4  2  0
M  END
>  <rName>  (1197) 
Phe_4ethynyl

>  <PQ_SYMBOL>  (1197) 
Phe_4ethynyl

>  <FULL_NAME>  (1197) 
4-ethynyl-L-phenylalanine

>  <IUPAC_CONDENSED>  (1197) 
Phe(4-ethynyl)

>  <IUPAC>  (1197) 
(2S)-2-amino-3-(4-(ethynyl)phenyl)propanoic acid

>  <TYPE>  (1197) 
Backbone

>  <CLASS>  (1197) 
alpha

>  <ANALOG>  (1197) 
Phe

>  <MOL_WT>  (1197) 
189.21399999999997

>  <LOGP>  (1197) 
0.6223000000000001

>  <TPSA>  (1197) 
63.32000000000001

>  <POPULARITY>  (1197) 
9.5

>  <PROTECTED>  (1197) 
TRUE

>  <SMILES>  (1197) 
N[C@@H](Cc1(ccc(C#C)cc1))C(=O)O

>  <INCHIKEY>  (1197) 
PPDNGMUGVMESGE-JTQLQIEISA-N

$$$$
Asp-OMe
     RDKit          2D

 10  9  0  0  0  0  0  0  0  0999 V2000
    0.1391    1.7243    0.0000 N   0  0  0  0  0  0  0  0  0  0  0  0
   -0.0935    0.2424    0.0000 C   0  0  0  0  0  0  0  0  0  0  0  0
   -1.4930   -0.2972    0.0000 C   0  0  0  0  0  0  0  0  0  0  0  0
   -1.7256   -1.7790    0.0000 O   0  0  0  0  0  0  0  0  0  0  0  0
   -2.6601    0.6451    0.0000 O   0  0  0  0  0  0  0  0  0  0  0  0
   -4.0597    0.1056    0.0000 C   0  0  0  0  0  0  0  0  0  0  0  0
    1.0736   -0.6999    0.0000 C   0  0  0  0  0  0  0  0  0  0  0  0
    2.4732   -0.1603    0.0000 C   0  0  0  0  0  0  0  0  0  0  0  0
    2.7057    1.3216    0.0000 O   0  0  0  0  0  0  0  0  0  0  0  0
    3.6403   -1.1026    0.0000 O   0  0  0  0  0  0  0  0  0  0  0  0
  2  1  1  1
  2  3  1  0
  3  4  2  0
  3  5  1  0
  5  6  1  0
  2  7  1  0
  7  8  1  0
  8  9  2  0
  8 10  1  0
M  END
>  <rName>  (1198) 
Asp-OMe

>  <PQ_SYMBOL>  (1198) 
Asp-OMe

>  <FULL_NAME>  (1198) 
(3~{S})-3-azanyl-4-methoxy-4-oxidanylidene-butanoic acid

>  <IUPAC_CONDENSED>  (1198) 
Asp-OMe

>  <IUPAC>  (1198) 
(3S)-3-amino-3-(methoxycarbonyl)propanoic acid

>  <TYPE>  (1198) 
Backbone

>  <CLASS>  (1198) 
beta

>  <ANALOG>  (1198) 
X

>  <MOL_WT>  (1198) 
147.13

>  <LOGP>  (1198) 
-1.0385999999999997

>  <TPSA>  (1198) 
89.62000000000002

>  <POPULARITY>  (1198) 
24.4

>  <PROTECTED>  (1198) 
TRUE

>  <SMILES>  (1198) 
N[C@H](C(=O)OC)CC(=O)O

>  <INCHIKEY>  (1198) 
SWWBMHIMADRNIK-VKHMYHEASA-N

$$$$
Phe_3Br
     RDKit          2D

 13 13  0  0  0  0  0  0  0  0999 V2000
   -1.7680    1.6690    0.0000 N   0  0  0  0  0  0  0  0  0  0  0  0
   -1.9932    0.1860    0.0000 C   0  0  0  0  0  0  0  0  0  0  0  0
   -0.8215   -0.7506    0.0000 C   0  0  0  0  0  0  0  0  0  0  0  0
    0.5754   -0.2041    0.0000 C   0  0  0  0  0  0  0  0  0  0  0  0
    0.8006    1.2789    0.0000 C   0  0  0  0  0  0  0  0  0  0  0  0
    2.1976    1.8254    0.0000 C   0  0  0  0  0  0  0  0  0  0  0  0
    3.3693    0.8888    0.0000 C   0  0  0  0  0  0  0  0  0  0  0  0
    3.1441   -0.5942    0.0000 C   0  0  0  0  0  0  0  0  0  0  0  0
    4.3158   -1.5307    0.0000 Br  0  0  0  0  0  0  0  0  0  0  0  0
    1.7472   -1.1406    0.0000 C   0  0  0  0  0  0  0  0  0  0  0  0
   -3.3901   -0.3605    0.0000 C   0  0  0  0  0  0  0  0  0  0  0  0
   -3.6153   -1.8435    0.0000 O   0  0  0  0  0  0  0  0  0  0  0  0
   -4.5618    0.5760    0.0000 O   0  0  0  0  0  0  0  0  0  0  0  0
  2  1  1  1
  2  3  1  0
  3  4  1  0
  4  5  2  0
  5  6  1  0
  6  7  2  0
  7  8  1  0
  8  9  1  0
  8 10  2  0
  2 11  1  0
 11 12  2  0
 11 13  1  0
 10  4  1  0
M  END
>  <rName>  (1199) 
Phe_3Br

>  <PQ_SYMBOL>  (1199) 
Phe_3Br

>  <FULL_NAME>  (1199) 
3-bromo-L-phenylalanine

>  <IUPAC_CONDENSED>  (1199) 
Phe(3-Br)

>  <IUPAC>  (1199) 
(2S)-2-amino-3-(3-bromophenyl)propanoic acid

>  <TYPE>  (1199) 
Backbone

>  <CLASS>  (1199) 
alpha

>  <ANALOG>  (1199) 
Phe

>  <MOL_WT>  (1199) 
244.08799999999997

>  <LOGP>  (1199) 
1.4035000000000002

>  <TPSA>  (1199) 
63.32000000000001

>  <POPULARITY>  (1199) 
13.7

>  <PROTECTED>  (1199) 
TRUE

>  <SMILES>  (1199) 
N[C@@H](Cc1(cccc(Br)c1))C(=O)O

>  <INCHIKEY>  (1199) 
GDMOHOYNMWWBAU-QMMMGPOBSA-N

$$$$
Phe_2OMe
     RDKit          2D

 14 14  0  0  0  0  0  0  0  0999 V2000
   -1.9781    1.7869    0.0000 N   0  0  0  0  0  0  0  0  0  0  0  0
   -2.0323    0.2879    0.0000 C   0  0  0  0  0  0  0  0  0  0  0  0
   -0.7612   -0.5086    0.0000 C   0  0  0  0  0  0  0  0  0  0  0  0
    0.5641    0.1940    0.0000 C   0  0  0  0  0  0  0  0  0  0  0  0
    0.6183    1.6931    0.0000 C   0  0  0  0  0  0  0  0  0  0  0  0
    1.9435    2.3957    0.0000 C   0  0  0  0  0  0  0  0  0  0  0  0
    3.2146    1.5993    0.0000 C   0  0  0  0  0  0  0  0  0  0  0  0
    3.1605    0.1002    0.0000 C   0  0  0  0  0  0  0  0  0  0  0  0
    1.8352   -0.6024    0.0000 C   0  0  0  0  0  0  0  0  0  0  0  0
    1.7811   -2.1014    0.0000 O   0  0  0  0  0  0  0  0  0  0  0  0
    3.0522   -2.8978    0.0000 C   0  0  0  0  0  0  0  0  0  0  0  0
   -3.3575   -0.4148    0.0000 C   0  0  0  0  0  0  0  0  0  0  0  0
   -3.4117   -1.9138    0.0000 O   0  0  0  0  0  0  0  0  0  0  0  0
   -4.6287    0.3817    0.0000 O   0  0  0  0  0  0  0  0  0  0  0  0
  2  1  1  1
  2  3  1  0
  3  4  1  0
  4  5  2  0
  5  6  1  0
  6  7  2  0
  7  8  1  0
  8  9  2  0
  9 10  1  0
 10 11  1  0
  2 12  1  0
 12 13  2  0
 12 14  1  0
  9  4  1  0
M  END
>  <rName>  (1200) 
Phe_2OMe

>  <PQ_SYMBOL>  (1200) 
Phe_2OMe

>  <FULL_NAME>  (1200) 
(2S)-2-amino-3-(2-methoxyphenyl)propan-1-ol

>  <IUPAC_CONDENSED>  (1200) 
Phe(2-OMe)

>  <IUPAC>  (1200) 
(2S)-2-amino-3-(2-methoxyphenyl)propanoic acid

>  <TYPE>  (1200) 
Backbone

>  <CLASS>  (1200) 
alpha

>  <ANALOG>  (1200) 
Tyr

>  <MOL_WT>  (1200) 
195.21799999999996

>  <LOGP>  (1200) 
0.6496

>  <TPSA>  (1200) 
72.55

>  <POPULARITY>  (1200) 
12.4

>  <PROTECTED>  (1200) 
TRUE

>  <SMILES>  (1200) 
N[C@@H](Cc1(ccccc1OC))C(=O)O

>  <INCHIKEY>  (1200) 
SEUPQWHWULSGJC-QMMMGPOBSA-N

$$$$
aMeLys
     RDKit          2D

 11 10  0  0  0  0  0  0  0  0999 V2000
   -0.6186    1.8190    0.0000 N   0  0  0  0  0  0  0  0  0  0  0  0
   -1.4256    0.5545    0.0000 C   0  0  0  0  0  0  0  0  0  0  0  0
   -2.6900    1.3614    0.0000 C   0  0  0  0  0  0  0  0  0  0  0  0
   -0.1611   -0.2524    0.0000 C   0  0  0  0  0  0  0  0  0  0  0  0
    1.1700    0.4391    0.0000 C   0  0  0  0  0  0  0  0  0  0  0  0
    2.4344   -0.3678    0.0000 C   0  0  0  0  0  0  0  0  0  0  0  0
    3.7655    0.3238    0.0000 C   0  0  0  0  0  0  0  0  0  0  0  0
    5.0299   -0.4832    0.0000 N   0  0  0  0  0  0  0  0  0  0  0  0
   -2.2325   -0.7100    0.0000 C   0  0  0  0  0  0  0  0  0  0  0  0
   -3.7310   -0.6433    0.0000 O   0  0  0  0  0  0  0  0  0  0  0  0
   -1.5409   -2.0410    0.0000 O   0  0  0  0  0  0  0  0  0  0  0  0
  1  2  1  0
  2  3  1  6
  2  4  1  0
  4  5  1  0
  5  6  1  0
  6  7  1  0
  7  8  1  0
  2  9  1  0
  9 10  2  0
  9 11  1  0
M  END
>  <rName>  (1201) 
aMeLys

>  <PQ_SYMBOL>  (1201) 
aMeLys

>  <FULL_NAME>  (1201) 
2-Methyllysine

>  <IUPAC_CONDENSED>  (1201) 
aMeLys

>  <IUPAC>  (1201) 
(2S)-2,6-diamino-2-methylhexanoic acid

>  <TYPE>  (1201) 
Backbone

>  <CLASS>  (1201) 
alpha

>  <ANALOG>  (1201) 
Lys

>  <MOL_WT>  (1201) 
160.217

>  <LOGP>  (1201) 
-0.08260000000000067

>  <TPSA>  (1201) 
89.34

>  <POPULARITY>  (1201) 
15.7

>  <PROTECTED>  (1201) 
TRUE

>  <SMILES>  (1201) 
N[C@@](C)(CCCCN)C(=O)O

>  <INCHIKEY>  (1201) 
CPUSCHYXEUZMSV-ZETCQYMHSA-N

$$$$
D-bhTrp
     RDKit          2D

 16 17  0  0  0  0  0  0  0  0999 V2000
   -2.2204   -1.3731    0.0000 N   0  0  0  0  0  0  0  0  0  0  0  0
   -2.0671    0.1190    0.0000 C   0  0  0  0  0  0  0  0  0  0  0  0
   -0.6982    0.7323    0.0000 C   0  0  0  0  0  0  0  0  0  0  0  0
    0.5173   -0.1465    0.0000 C   0  0  0  0  0  0  0  0  0  0  0  0
    0.5208   -1.6465    0.0000 C   0  0  0  0  0  0  0  0  0  0  0  0
    1.9485   -2.1067    0.0000 N   0  0  0  0  0  0  0  0  0  0  0  0
    2.8273   -0.8912    0.0000 C   0  0  0  0  0  0  0  0  0  0  0  0
    4.3188   -0.7309    0.0000 C   0  0  0  0  0  0  0  0  0  0  0  0
    4.9257    0.6408    0.0000 C   0  0  0  0  0  0  0  0  0  0  0  0
    4.0412    1.8523    0.0000 C   0  0  0  0  0  0  0  0  0  0  0  0
    2.5498    1.6920    0.0000 C   0  0  0  0  0  0  0  0  0  0  0  0
    1.9428    0.3203    0.0000 C   0  0  0  0  0  0  0  0  0  0  0  0
   -3.2827    0.9979    0.0000 C   0  0  0  0  0  0  0  0  0  0  0  0
   -4.6516    0.3846    0.0000 C   0  0  0  0  0  0  0  0  0  0  0  0
   -4.8049   -1.1076    0.0000 O   0  0  0  0  0  0  0  0  0  0  0  0
   -5.8672    1.2634    0.0000 O   0  0  0  0  0  0  0  0  0  0  0  0
  2  1  1  1
  2  3  1  0
  3  4  1  0
  4  5  2  0
  5  6  1  0
  6  7  1  0
  7  8  2  0
  8  9  1  0
  9 10  2  0
 10 11  1  0
 11 12  2  0
  2 13  1  0
 13 14  1  0
 14 15  2  0
 14 16  1  0
 12  7  1  0
 12  4  1  0
M  END
>  <rName>  (1202) 
D-bhTrp

>  <PQ_SYMBOL>  (1202) 
D-bhTrp

>  <FULL_NAME>  (1202) 
(3~{R})-3-azanyl-4-(1~{H}-indol-3-yl)butanal

>  <IUPAC_CONDENSED>  (1202) 
D-bhTrp

>  <IUPAC>  (1202) 
(3R)-3-amino-4-(1H-indol-3-yl)butanoic acid

>  <TYPE>  (1202) 
Backbone

>  <CLASS>  (1202) 
beta

>  <ANALOG>  (1202) 
Trp

>  <MOL_WT>  (1202) 
218.25599999999997

>  <LOGP>  (1202) 
1.5124000000000004

>  <TPSA>  (1202) 
79.11

>  <POPULARITY>  (1202) 
10.2

>  <PROTECTED>  (1202) 
TRUE

>  <SMILES>  (1202) 
N[C@H](Cc2(c[nH]c1(ccccc12)))CC(=O)O

>  <INCHIKEY>  (1202) 
DUVVFMLAHWNDJD-SECBINFHSA-N

$$$$
NMe-Ala_cBu
     RDKit          2D

 11 11  0  0  0  0  0  0  0  0999 V2000
   -0.6234    1.4037    0.0000 N   0  0  0  0  0  0  0  0  0  0  0  0
   -1.8098    2.3215    0.0000 C   0  0  0  0  0  0  0  0  0  0  0  0
   -0.8250   -0.0827    0.0000 C   0  0  0  0  0  0  0  0  0  0  0  0
    0.3614   -1.0005    0.0000 C   0  0  0  0  0  0  0  0  0  0  0  0
    1.7495   -0.4320    0.0000 C   0  0  0  0  0  0  0  0  0  0  0  0
    2.3290    0.9516    0.0000 C   0  0  0  0  0  0  0  0  0  0  0  0
    3.7125    0.3721    0.0000 C   0  0  0  0  0  0  0  0  0  0  0  0
    3.1330   -1.0114    0.0000 C   0  0  0  0  0  0  0  0  0  0  0  0
   -2.2131   -0.6512    0.0000 C   0  0  0  0  0  0  0  0  0  0  0  0
   -2.4147   -2.1376    0.0000 O   0  0  0  0  0  0  0  0  0  0  0  0
   -3.3995    0.2666    0.0000 O   0  0  0  0  0  0  0  0  0  0  0  0
  1  2  1  0
  1  3  1  0
  3  4  1  1
  4  5  1  0
  5  6  1  0
  6  7  1  0
  7  8  1  0
  3  9  1  0
  9 10  2  0
  9 11  1  0
  8  5  1  0
M  END
>  <rName>  (1203) 
NMe-Ala_cBu

>  <PQ_SYMBOL>  (1203) 
NMe-Ala_cBu

>  <FULL_NAME>  (1203) 
(2~{S})-3-cyclobutyl-2-(methylamino)propanoic acid

>  <IUPAC_CONDENSED>  (1203) 
Me-Ala(cBu)

>  <IUPAC>  (1203) 
(2S)-3-cyclobutyl-2-(methylamino)propanoic acid

>  <TYPE>  (1203) 
Backbone

>  <CLASS>  (1203) 
alpha

>  <ANALOG>  (1203) 
Ala

>  <MOL_WT>  (1203) 
157.213

>  <LOGP>  (1203) 
0.8492

>  <TPSA>  (1203) 
49.33

>  <POPULARITY>  (1203) 
9

>  <PROTECTED>  (1203) 
TRUE

>  <SMILES>  (1203) 
N(C)[C@@H](CC1(CCC1))C(=O)O

>  <INCHIKEY>  (1203) 
FWFFEJNSBQYNAZ-ZETCQYMHSA-N

$$$$
bAla_3SMeSH
     RDKit          2D

  8  7  0  0  0  0  0  0  0  0999 V2000
   -0.7931    1.4169    0.0000 N   0  0  0  0  0  0  0  0  0  0  0  0
   -0.8131   -0.0829    0.0000 C   0  0  0  0  0  0  0  0  0  0  0  0
   -2.1220   -0.8156    0.0000 C   0  0  0  0  0  0  0  0  0  0  0  0
   -3.4109   -0.0483    0.0000 S   0  0  0  0  0  0  0  0  0  0  0  0
    0.4759   -0.8502    0.0000 C   0  0  0  0  0  0  0  0  0  0  0  0
    1.7848   -0.1175    0.0000 C   0  0  0  0  0  0  0  0  0  0  0  0
    1.8048    1.3823    0.0000 O   0  0  0  0  0  0  0  0  0  0  0  0
    3.0737   -0.8848    0.0000 O   0  0  0  0  0  0  0  0  0  0  0  0
  2  1  1  6
  2  3  1  0
  3  4  1  0
  2  5  1  0
  5  6  1  0
  6  7  2  0
  6  8  1  0
M  END
>  <rName>  (1204) 
bAla_3SMeSH

>  <PQ_SYMBOL>  (1204) 
bAla_3SMeSH

>  <FULL_NAME>  (1204) 
(3R)-3-amino-4-sulfanylbutanoic acid

>  <IUPAC_CONDENSED>  (1204) 
bAla(3S-MeSH)

>  <IUPAC>  (1204) 
(3R)-3-amino-4-sulfanylbutanoic acid

>  <TYPE>  (1204) 
Backbone

>  <CLASS>  (1204) 
beta

>  <ANALOG>  (1204) 
Cys

>  <MOL_WT>  (1204) 
135.188

>  <LOGP>  (1204) 
-0.28180000000000033

>  <TPSA>  (1204) 
63.32000000000001

>  <POPULARITY>  (1204) 
11.2

>  <PROTECTED>  (1204) 
TRUE

>  <SMILES>  (1204) 
N[C@@H](CS)CC(=O)O

>  <INCHIKEY>  (1204) 
UGPZHAXXEJECMI-GSVOUGTGSA-N

$$$$
Gla
     RDKit          2D

 13 12  0  0  0  0  0  0  0  0999 V2000
   -1.3045    1.6202    0.0000 N   0  0  0  0  0  0  0  0  0  0  0  0
   -1.4942    0.1323    0.0000 C   0  0  0  0  0  0  0  0  0  0  0  0
   -0.3004   -0.7759    0.0000 C   0  0  0  0  0  0  0  0  0  0  0  0
    1.0831   -0.1962    0.0000 C   0  0  0  0  0  0  0  0  0  0  0  0
    2.2769   -1.1044    0.0000 C   0  0  0  0  0  0  0  0  0  0  0  0
    2.0872   -2.5924    0.0000 O   0  0  0  0  0  0  0  0  0  0  0  0
    3.6603   -0.5247    0.0000 O   0  0  0  0  0  0  0  0  0  0  0  0
    1.2727    1.2918    0.0000 C   0  0  0  0  0  0  0  0  0  0  0  0
    0.0789    2.2000    0.0000 O   0  0  0  0  0  0  0  0  0  0  0  0
    2.6562    1.8715    0.0000 O   0  0  0  0  0  0  0  0  0  0  0  0
   -2.8776   -0.4475    0.0000 C   0  0  0  0  0  0  0  0  0  0  0  0
   -3.0672   -1.9354    0.0000 O   0  0  0  0  0  0  0  0  0  0  0  0
   -4.0714    0.4608    0.0000 O   0  0  0  0  0  0  0  0  0  0  0  0
  2  1  1  1
  2  3  1  0
  3  4  1  0
  4  5  1  0
  5  6  2  0
  5  7  1  0
  4  8  1  0
  8  9  2  0
  8 10  1  0
  2 11  1  0
 11 12  2  0
 11 13  1  0
M  END
>  <rName>  (1205) 
Gla

>  <PQ_SYMBOL>  (1205) 
Gla

>  <FULL_NAME>  (1205) 
GAMMA-CARBOXY-GLUTAMIC ACID

>  <IUPAC_CONDENSED>  (1205) 
Gla

>  <IUPAC>  (1205) 
(2S)-2-amino-4-carboxypentanedioic acid

>  <TYPE>  (1205) 
Backbone

>  <CLASS>  (1205) 
alpha

>  <ANALOG>  (1205) 
Glu

>  <MOL_WT>  (1205) 
191.13899999999998

>  <LOGP>  (1205) 
-1.4261999999999997

>  <TPSA>  (1205) 
137.92000000000002

>  <POPULARITY>  (1205) 
26.5

>  <PROTECTED>  (1205) 
TRUE

>  <SMILES>  (1205) 
N[C@@H](CC(C(=O)O)C(=O)O)C(=O)O

>  <INCHIKEY>  (1205) 
UHBYWPGGCSDKFX-VKHMYHEASA-N

$$$$
Dha
     RDKit          2D

  6  5  0  0  0  0  0  0  0  0999 V2000
    1.5000   -1.2990    0.0000 N   0  0  0  0  0  0  0  0  0  0  0  0
    0.7500    0.0000    0.0000 C   0  0  0  0  0  0  0  0  0  0  0  0
    1.5000    1.2990    0.0000 C   0  0  0  0  0  0  0  0  0  0  0  0
   -0.7500   -0.0000    0.0000 C   0  0  0  0  0  0  0  0  0  0  0  0
   -1.5000    1.2990    0.0000 O   0  0  0  0  0  0  0  0  0  0  0  0
   -1.5000   -1.2990    0.0000 O   0  0  0  0  0  0  0  0  0  0  0  0
  1  2  1  0
  2  3  2  0
  2  4  1  0
  4  5  2  0
  4  6  1  0
M  END
>  <rName>  (1206) 
Dha

>  <PQ_SYMBOL>  (1206) 
Dha

>  <FULL_NAME>  (1206) 
2-AMINO-ACRYLIC ACID

>  <IUPAC_CONDENSED>  (1206) 
Dha

>  <IUPAC>  (1206) 
2-aminoprop-2-enoic acid

>  <TYPE>  (1206) 
Backbone

>  <CLASS>  (1206) 
unknown

>  <ANALOG>  (1206) 
Ala

>  <MOL_WT>  (1206) 
87.07799999999999

>  <LOGP>  (1206) 
-0.45659999999999995

>  <TPSA>  (1206) 
63.32000000000001

>  <POPULARITY>  (1206) 
34

>  <PROTECTED>  (1206) 
TRUE

>  <SMILES>  (1206) 
NC(=C)C(=O)O

>  <INCHIKEY>  (1206) 
UQBOJOOOTLPNST-UHFFFAOYSA-N

$$$$
Asn_Me2
     RDKit          2D

 11 10  0  0  0  0  0  0  0  0999 V2000
    1.2990    1.8409    0.0000 N   0  0  0  0  0  0  0  0  0  0  0  0
    1.2990    0.3409    0.0000 C   0  0  0  0  0  0  0  0  0  0  0  0
   -0.0000   -0.4091    0.0000 C   0  0  0  0  0  0  0  0  0  0  0  0
   -1.2990    0.3409    0.0000 C   0  0  0  0  0  0  0  0  0  0  0  0
   -1.2990    1.8409    0.0000 O   0  0  0  0  0  0  0  0  0  0  0  0
   -2.5981   -0.4091    0.0000 N   0  0  0  0  0  0  0  0  0  0  0  0
   -3.8971    0.3409    0.0000 C   0  0  0  0  0  0  0  0  0  0  0  0
   -2.5981   -1.9091    0.0000 C   0  0  0  0  0  0  0  0  0  0  0  0
    2.5981   -0.4091    0.0000 C   0  0  0  0  0  0  0  0  0  0  0  0
    2.5981   -1.9091    0.0000 O   0  0  0  0  0  0  0  0  0  0  0  0
    3.8971    0.3409    0.0000 O   0  0  0  0  0  0  0  0  0  0  0  0
  2  1  1  6
  2  3  1  0
  3  4  1  0
  4  5  2  0
  4  6  1  0
  6  7  1  0
  6  8  1  0
  2  9  1  0
  9 10  2  0
  9 11  1  0
M  END
>  <rName>  (1207) 
Asn_Me2

>  <PQ_SYMBOL>  (1207) 
Asn_Me2

>  <FULL_NAME>  (1207) 
N4,N4-DIMETHYL-ASPARAGINE

>  <IUPAC_CONDENSED>  (1207) 
Asn(Me2)

>  <IUPAC>  (1207) 
(2S)-2-amino-3-(dimethylcarbamoyl)propanoic acid

>  <TYPE>  (1207) 
Backbone

>  <CLASS>  (1207) 
alpha

>  <ANALOG>  (1207) 
X

>  <MOL_WT>  (1207) 
160.173

>  <LOGP>  (1207) 
-1.1233999999999995

>  <TPSA>  (1207) 
83.63000000000001

>  <POPULARITY>  (1207) 
15.8

>  <PROTECTED>  (1207) 
TRUE

>  <SMILES>  (1207) 
N[C@@H](CC(=O)N(C)C)C(=O)O

>  <INCHIKEY>  (1207) 
AHEBZPSPUGRPFZ-BYPYZUCNSA-N

$$$$
Lys_Dan
     RDKit          2D

 26 27  0  0  0  0  0  0  0  0999 V2000
    6.1808    2.3008    0.0000 N   0  0  0  0  0  0  0  0  0  0  0  0
    6.7041    0.8950    0.0000 C   0  0  0  0  0  0  0  0  0  0  0  0
    5.7483   -0.2611    0.0000 C   0  0  0  0  0  0  0  0  0  0  0  0
    4.2692   -0.0114    0.0000 C   0  0  0  0  0  0  0  0  0  0  0  0
    3.3134   -1.1674    0.0000 C   0  0  0  0  0  0  0  0  0  0  0  0
    1.8344   -0.9177    0.0000 C   0  0  0  0  0  0  0  0  0  0  0  0
    0.8786   -2.0738    0.0000 N   0  0  0  0  0  0  0  0  0  0  0  0
   -0.6005   -1.8241    0.0000 S   0  0  0  0  0  0  0  0  0  0  0  0
   -0.8502   -3.3032    0.0000 O   0  0  0  0  0  0  0  0  0  0  0  0
   -0.3508   -0.3450    0.0000 O   0  0  0  0  0  0  0  0  0  0  0  0
   -2.0796   -1.5744    0.0000 C   0  0  0  0  0  0  0  0  0  0  0  0
   -3.0353   -2.7304    0.0000 C   0  0  0  0  0  0  0  0  0  0  0  0
   -4.5144   -2.4807    0.0000 C   0  0  0  0  0  0  0  0  0  0  0  0
   -5.0377   -1.0750    0.0000 C   0  0  0  0  0  0  0  0  0  0  0  0
   -4.0819    0.0811    0.0000 C   0  0  0  0  0  0  0  0  0  0  0  0
   -4.6052    1.4869    0.0000 C   0  0  0  0  0  0  0  0  0  0  0  0
   -3.6494    2.6429    0.0000 C   0  0  0  0  0  0  0  0  0  0  0  0
   -2.1703    2.3932    0.0000 C   0  0  0  0  0  0  0  0  0  0  0  0
   -1.6471    0.9874    0.0000 C   0  0  0  0  0  0  0  0  0  0  0  0
   -2.6028   -0.1686    0.0000 C   0  0  0  0  0  0  0  0  0  0  0  0
   -6.0843    1.7366    0.0000 N   0  0  0  0  0  0  0  0  0  0  0  0
   -6.6076    3.1423    0.0000 C   0  0  0  0  0  0  0  0  0  0  0  0
   -7.0401    0.5805    0.0000 C   0  0  0  0  0  0  0  0  0  0  0  0
    8.1831    0.6453    0.0000 C   0  0  0  0  0  0  0  0  0  0  0  0
    8.7064   -0.7605    0.0000 O   0  0  0  0  0  0  0  0  0  0  0  0
    9.1389    1.8013    0.0000 O   0  0  0  0  0  0  0  0  0  0  0  0
  2  1  1  6
  2  3  1  0
  3  4  1  0
  4  5  1  0
  5  6  1  0
  6  7  1  0
  7  8  1  0
  8  9  2  0
  8 10  2  0
  8 11  1  0
 11 12  1  0
 12 13  2  0
 13 14  1  0
 14 15  2  0
 15 16  1  0
 16 17  2  0
 17 18  1  0
 18 19  2  0
 19 20  1  0
 16 21  1  0
 21 22  1  0
 21 23  1  0
  2 24  1  0
 24 25  2  0
 24 26  1  0
 20 15  1  0
 20 11  2  0
M  END
>  <rName>  (1208) 
Lys_Dan

>  <PQ_SYMBOL>  (1208) 
Lys_Dan

>  <FULL_NAME>  (1208) 
N~6~-{[5-(DIMETHYLAMINO)-1-NAPHTHYL]SULFONYL}-L-LYSINE

>  <IUPAC_CONDENSED>  (1208) 
Lys(Dan)

>  <IUPAC>  (1208) 
(2S)-2-amino-6-(5-(dimethylamino)naphthalen-1-ylsulfonylamino)hexanoic acid

>  <TYPE>  (1208) 
Backbone

>  <CLASS>  (1208) 
alpha

>  <ANALOG>  (1208) 
Lys

>  <MOL_WT>  (1208) 
379.48200000000014

>  <LOGP>  (1208) 
1.7663

>  <TPSA>  (1208) 
112.73

>  <POPULARITY>  (1208) 
8.2

>  <PROTECTED>  (1208) 
TRUE

>  <SMILES>  (1208) 
N[C@@H](CCCCNS(=O)(=O)c2(cccc1(c(cccc12)N(C)C)))C(=O)O

>  <INCHIKEY>  (1208) 
VQPRNSWQIAHPMS-HNNXBMFYSA-N

$$$$
Pro_4carbonyl
     RDKit          2D

  9  9  0  0  0  0  0  0  0  0999 V2000
   -0.1792   -1.4541    0.0000 N   0  0  0  0  0  0  0  0  0  0  0  0
    0.4598   -0.0969    0.0000 C   0  0  0  0  0  0  0  0  0  0  0  0
   -0.6334    0.9301    0.0000 C   0  0  0  0  0  0  0  0  0  0  0  0
   -1.9481    0.2077    0.0000 C   0  0  0  0  0  0  0  0  0  0  0  0
   -3.3052    0.8467    0.0000 O   0  0  0  0  0  0  0  0  0  0  0  0
   -1.6673   -1.2657    0.0000 C   0  0  0  0  0  0  0  0  0  0  0  0
    1.9333    0.1838    0.0000 C   0  0  0  0  0  0  0  0  0  0  0  0
    2.4269    1.6003    0.0000 O   0  0  0  0  0  0  0  0  0  0  0  0
    2.9132   -0.9519    0.0000 O   0  0  0  0  0  0  0  0  0  0  0  0
  1  2  1  0
  2  3  1  0
  3  4  1  0
  4  5  2  0
  4  6  1  0
  2  7  1  1
  7  8  2  0
  7  9  1  0
  6  1  1  0
M  END
>  <rName>  (1209) 
Pro_4carbonyl

>  <PQ_SYMBOL>  (1209) 
Pro_4carbonyl

>  <FULL_NAME>  (1209) 
4-OXOPROLINE

>  <IUPAC_CONDENSED>  (1209) 
Pro(4-carbonyl)

>  <IUPAC>  (1209) 
(2S)-4-oxopyrrolidine-2-carboxylic acid

>  <TYPE>  (1209) 
Backbone

>  <CLASS>  (1209) 
alpha

>  <ANALOG>  (1209) 
Pro

>  <MOL_WT>  (1209) 
129.115

>  <LOGP>  (1209) 
-0.9980000000000004

>  <TPSA>  (1209) 
66.4

>  <POPULARITY>  (1209) 
8.9

>  <PROTECTED>  (1209) 
TRUE

>  <SMILES>  (1209) 
N1[C@@H](CC(=O)C1)C(=O)O

>  <INCHIKEY>  (1209) 
HFXAFXVXPMUQCQ-BYPYZUCNSA-N

$$$$
Lys_Et2
     RDKit          2D

 14 13  0  0  0  0  0  0  0  0999 V2000
   -2.9844    2.0134    0.0000 N   0  0  0  0  0  0  0  0  0  0  0  0
   -2.9732    0.5134    0.0000 C   0  0  0  0  0  0  0  0  0  0  0  0
   -1.6685   -0.2268    0.0000 C   0  0  0  0  0  0  0  0  0  0  0  0
   -0.3752    0.5329    0.0000 C   0  0  0  0  0  0  0  0  0  0  0  0
    0.9295   -0.2073    0.0000 C   0  0  0  0  0  0  0  0  0  0  0  0
    2.2228    0.5524    0.0000 C   0  0  0  0  0  0  0  0  0  0  0  0
    3.5275   -0.1878    0.0000 N   0  0  0  0  0  0  0  0  0  0  0  0
    4.8208    0.5719    0.0000 C   0  0  0  0  0  0  0  0  0  0  0  0
    4.8096    2.0719    0.0000 C   0  0  0  0  0  0  0  0  0  0  0  0
    3.5387   -1.6878    0.0000 C   0  0  0  0  0  0  0  0  0  0  0  0
    2.2454   -2.4475    0.0000 C   0  0  0  0  0  0  0  0  0  0  0  0
   -4.2665   -0.2463    0.0000 C   0  0  0  0  0  0  0  0  0  0  0  0
   -4.2553   -1.7463    0.0000 O   0  0  0  0  0  0  0  0  0  0  0  0
   -5.5712    0.4939    0.0000 O   0  0  0  0  0  0  0  0  0  0  0  0
  2  1  1  1
  2  3  1  0
  3  4  1  0
  4  5  1  0
  5  6  1  0
  6  7  1  0
  7  8  1  0
  8  9  1  0
  7 10  1  0
 10 11  1  0
  2 12  1  0
 12 13  2  0
 12 14  1  0
M  END
>  <rName>  (1210) 
Lys_Et2

>  <PQ_SYMBOL>  (1210) 
Lys_Et2

>  <FULL_NAME>  (1210) 
N~6~,N~6~-diethyl-L-lysine

>  <IUPAC_CONDENSED>  (1210) 
Lys(Et2)

>  <IUPAC>  (1210) 
(2S)-2-amino-6-(diethylamino)hexanoic acid

>  <TYPE>  (1210) 
Backbone

>  <CLASS>  (1210) 
alpha

>  <ANALOG>  (1210) 
Lys

>  <MOL_WT>  (1210) 
202.29799999999997

>  <LOGP>  (1210) 
0.9103999999999994

>  <TPSA>  (1210) 
66.56

>  <POPULARITY>  (1210) 
19.6

>  <PROTECTED>  (1210) 
TRUE

>  <SMILES>  (1210) 
N[C@@H](CCCCN(CC)CC)C(=O)O

>  <INCHIKEY>  (1210) 
LBVIZDDNHRTLPY-VIFPVBQESA-N

$$$$
D-Phe_3Br
     RDKit          2D

 13 13  0  0  0  0  0  0  0  0999 V2000
   -1.7680    1.6690    0.0000 N   0  0  0  0  0  0  0  0  0  0  0  0
   -1.9932    0.1860    0.0000 C   0  0  0  0  0  0  0  0  0  0  0  0
   -0.8215   -0.7506    0.0000 C   0  0  0  0  0  0  0  0  0  0  0  0
    0.5754   -0.2041    0.0000 C   0  0  0  0  0  0  0  0  0  0  0  0
    0.8006    1.2789    0.0000 C   0  0  0  0  0  0  0  0  0  0  0  0
    2.1976    1.8254    0.0000 C   0  0  0  0  0  0  0  0  0  0  0  0
    3.3693    0.8888    0.0000 C   0  0  0  0  0  0  0  0  0  0  0  0
    3.1441   -0.5942    0.0000 C   0  0  0  0  0  0  0  0  0  0  0  0
    4.3158   -1.5307    0.0000 Br  0  0  0  0  0  0  0  0  0  0  0  0
    1.7472   -1.1406    0.0000 C   0  0  0  0  0  0  0  0  0  0  0  0
   -3.3901   -0.3605    0.0000 C   0  0  0  0  0  0  0  0  0  0  0  0
   -3.6153   -1.8435    0.0000 O   0  0  0  0  0  0  0  0  0  0  0  0
   -4.5618    0.5760    0.0000 O   0  0  0  0  0  0  0  0  0  0  0  0
  2  1  1  6
  2  3  1  0
  3  4  1  0
  4  5  2  0
  5  6  1  0
  6  7  2  0
  7  8  1  0
  8  9  1  0
  8 10  2  0
  2 11  1  0
 11 12  2  0
 11 13  1  0
 10  4  1  0
M  END
>  <rName>  (1211) 
D-Phe_3Br

>  <PQ_SYMBOL>  (1211) 
D-Phe_3Br

>  <FULL_NAME>  (1211) 
(2R)-2-azanyl-3-(3-bromophenyl)propanoic acid

>  <IUPAC_CONDENSED>  (1211) 
D-Phe(3-Br)

>  <IUPAC>  (1211) 
(2R)-2-amino-3-(3-bromophenyl)propanoic acid

>  <TYPE>  (1211) 
Backbone

>  <CLASS>  (1211) 
alpha

>  <ANALOG>  (1211) 
Phe

>  <MOL_WT>  (1211) 
244.08799999999997

>  <LOGP>  (1211) 
1.4035000000000002

>  <TPSA>  (1211) 
63.32000000000001

>  <POPULARITY>  (1211) 
10.9

>  <PROTECTED>  (1211) 
TRUE

>  <SMILES>  (1211) 
N[C@H](Cc1(cccc(Br)c1))C(=O)O

>  <INCHIKEY>  (1211) 
GDMOHOYNMWWBAU-MRVPVSSYSA-N

$$$$
bTyr_R
     RDKit          2D

 13 13  0  0  0  0  0  0  0  0999 V2000
   -1.5598   -1.8792    0.0000 N   0  0  0  0  0  0  0  0  0  0  0  0
   -1.0324   -0.4750    0.0000 C   0  0  0  0  0  0  0  0  0  0  0  0
    0.4474   -0.2297    0.0000 C   0  0  0  0  0  0  0  0  0  0  0  0
    0.9749    1.1745    0.0000 C   0  0  0  0  0  0  0  0  0  0  0  0
    2.4547    1.4199    0.0000 C   0  0  0  0  0  0  0  0  0  0  0  0
    3.4070    0.2610    0.0000 C   0  0  0  0  0  0  0  0  0  0  0  0
    4.8868    0.5063    0.0000 O   0  0  0  0  0  0  0  0  0  0  0  0
    2.8796   -1.1432    0.0000 C   0  0  0  0  0  0  0  0  0  0  0  0
    1.3998   -1.3886    0.0000 C   0  0  0  0  0  0  0  0  0  0  0  0
   -1.9847    0.6838    0.0000 C   0  0  0  0  0  0  0  0  0  0  0  0
   -3.4645    0.4385    0.0000 C   0  0  0  0  0  0  0  0  0  0  0  0
   -3.9920   -0.9657    0.0000 O   0  0  0  0  0  0  0  0  0  0  0  0
   -4.4169    1.5974    0.0000 O   0  0  0  0  0  0  0  0  0  0  0  0
  2  1  1  1
  2  3  1  0
  3  4  1  0
  4  5  2  0
  5  6  1  0
  6  7  1  0
  6  8  2  0
  8  9  1  0
  2 10  1  0
 10 11  1  0
 11 12  2  0
 11 13  1  0
  9  3  2  0
M  END
>  <rName>  (1212) 
bTyr_R

>  <PQ_SYMBOL>  (1212) 
bTyr_R

>  <FULL_NAME>  (1212) 
Beta-tyrosine

>  <IUPAC_CONDENSED>  (1212) 
bTyr(R)

>  <IUPAC>  (1212) 
(3S)-3-amino-3-(4-hydroxyphenyl)propanoic acid

>  <TYPE>  (1212) 
Backbone

>  <CLASS>  (1212) 
beta

>  <ANALOG>  (1212) 
X

>  <MOL_WT>  (1212) 
181.19099999999995

>  <LOGP>  (1212) 
0.8667

>  <TPSA>  (1212) 
83.55

>  <POPULARITY>  (1212) 
15.8

>  <PROTECTED>  (1212) 
TRUE

>  <SMILES>  (1212) 
N[C@H](c1(ccc(O)cc1))CC(=O)O

>  <INCHIKEY>  (1212) 
JYPHNHPXFNEZBR-QMMMGPOBSA-N

$$$$
bLys_S
     RDKit          2D

 10  9  0  0  0  0  0  0  0  0999 V2000
    0.3386   -1.4842    0.0000 N   0  0  0  0  0  0  0  0  0  0  0  0
    0.2594    0.0137    0.0000 C   0  0  0  0  0  0  0  0  0  0  0  0
   -1.0773    0.6941    0.0000 C   0  0  0  0  0  0  0  0  0  0  0  0
   -2.3350   -0.1233    0.0000 C   0  0  0  0  0  0  0  0  0  0  0  0
   -3.6718    0.5571    0.0000 C   0  0  0  0  0  0  0  0  0  0  0  0
   -4.9295   -0.2604    0.0000 N   0  0  0  0  0  0  0  0  0  0  0  0
    1.5171    0.8312    0.0000 C   0  0  0  0  0  0  0  0  0  0  0  0
    2.8539    0.1507    0.0000 C   0  0  0  0  0  0  0  0  0  0  0  0
    2.9330   -1.3472    0.0000 O   0  0  0  0  0  0  0  0  0  0  0  0
    4.1116    0.9682    0.0000 O   0  0  0  0  0  0  0  0  0  0  0  0
  2  1  1  1
  2  3  1  0
  3  4  1  0
  4  5  1  0
  5  6  1  0
  2  7  1  0
  7  8  1  0
  8  9  2  0
  8 10  1  0
M  END
>  <rName>  (1213) 
bLys_S

>  <PQ_SYMBOL>  (1213) 
bLys_S

>  <FULL_NAME>  (1213) 
beta-lysine

>  <IUPAC_CONDENSED>  (1213) 
bLys(S)

>  <IUPAC>  (1213) 
(3S)-3,6-diaminohexanoic acid

>  <TYPE>  (1213) 
Backbone

>  <CLASS>  (1213) 
beta

>  <ANALOG>  (1213) 
Lys

>  <MOL_WT>  (1213) 
146.19000000000003

>  <LOGP>  (1213) 
-0.4727000000000004

>  <TPSA>  (1213) 
89.34

>  <POPULARITY>  (1213) 
25

>  <PROTECTED>  (1213) 
TRUE

>  <SMILES>  (1213) 
N[C@@H](CCCN)CC(=O)O

>  <INCHIKEY>  (1213) 
QKEWQOJCHPFEAF-YFKPBYRVSA-N

$$$$
bAla_3SMe_biPr_2SOH
     RDKit          2D

 11 10  0  0  0  0  0  0  0  0999 V2000
   -0.2095   -1.5586    0.0000 N   0  0  0  0  0  0  0  0  0  0  0  0
   -0.1219   -0.0612    0.0000 C   0  0  0  0  0  0  0  0  0  0  0  0
   -1.3749    0.7634    0.0000 C   0  0  0  0  0  0  0  0  0  0  0  0
   -2.7155    0.0906    0.0000 C   0  0  0  0  0  0  0  0  0  0  0  0
   -3.9685    0.9152    0.0000 C   0  0  0  0  0  0  0  0  0  0  0  0
   -2.8031   -1.4068    0.0000 C   0  0  0  0  0  0  0  0  0  0  0  0
    1.2188    0.6117    0.0000 C   0  0  0  0  0  0  0  0  0  0  0  0
    1.3064    2.1091    0.0000 O   0  0  0  0  0  0  0  0  0  0  0  0
    2.4718   -0.2129    0.0000 C   0  0  0  0  0  0  0  0  0  0  0  0
    2.3841   -1.7104    0.0000 O   0  0  0  0  0  0  0  0  0  0  0  0
    3.8124    0.4599    0.0000 O   0  0  0  0  0  0  0  0  0  0  0  0
  2  1  1  1
  2  3  1  0
  3  4  1  0
  4  5  1  0
  4  6  1  0
  2  7  1  0
  7  8  1  6
  7  9  1  0
  9 10  2  0
  9 11  1  0
M  END
>  <rName>  (1214) 
bAla_3SMe_biPr_2SOH

>  <PQ_SYMBOL>  (1214) 
bAla_3SMe_biPr_2SOH

>  <FULL_NAME>  (1214) 
(2S,3S)-3-amino-2-hydroxy-5-methylhexanoic acid

>  <IUPAC_CONDENSED>  (1214) 
bAla(3S-Me,b-iPr,2S-OH)

>  <IUPAC>  (1214) 
(2S,3S)-3-amino-2-hydroxy-5-methylhexanoic acid

>  <TYPE>  (1214) 
Backbone

>  <CLASS>  (1214) 
beta

>  <ANALOG>  (1214) 
Leu

>  <MOL_WT>  (1214) 
161.201

>  <LOGP>  (1214) 
-0.19470000000000032

>  <TPSA>  (1214) 
83.55

>  <POPULARITY>  (1214) 
9.5

>  <PROTECTED>  (1214) 
TRUE

>  <SMILES>  (1214) 
N[C@@H](CC(C)C)[C@H](O)C(=O)O

>  <INCHIKEY>  (1214) 
GZLMFCWSEKVVGO-WDSKDSINSA-N

$$$$
D-aMeNle_but3enyl
     RDKit          2D

 14 13  0  0  0  0  0  0  0  0999 V2000
   -2.2743    1.8192    0.0000 N   0  0  0  0  0  0  0  0  0  0  0  0
   -3.0695    0.5473    0.0000 C   0  0  0  0  0  0  0  0  0  0  0  0
   -4.3414    1.3425    0.0000 C   0  0  0  0  0  0  0  0  0  0  0  0
   -1.7977   -0.2479    0.0000 C   0  0  0  0  0  0  0  0  0  0  0  0
   -0.4731    0.4560    0.0000 C   0  0  0  0  0  0  0  0  0  0  0  0
    0.7988   -0.3392    0.0000 C   0  0  0  0  0  0  0  0  0  0  0  0
    2.1234    0.3646    0.0000 C   0  0  0  0  0  0  0  0  0  0  0  0
    3.3953   -0.4306    0.0000 C   0  0  0  0  0  0  0  0  0  0  0  0
    4.7199    0.2733    0.0000 C   0  0  0  0  0  0  0  0  0  0  0  0
    5.9917   -0.5219    0.0000 C   0  0  0  0  0  0  0  0  0  0  0  0
    7.3163    0.1820    0.0000 C   0  0  0  0  0  0  0  0  0  0  0  0
   -3.8647   -0.7245    0.0000 C   0  0  0  0  0  0  0  0  0  0  0  0
   -5.3638   -0.6718    0.0000 O   0  0  0  0  0  0  0  0  0  0  0  0
   -3.1609   -2.0491    0.0000 O   0  0  0  0  0  0  0  0  0  0  0  0
  1  2  1  0
  2  3  1  1
  2  4  1  0
  4  5  1  0
  5  6  1  0
  6  7  1  0
  7  8  1  0
  8  9  1  0
  9 10  1  0
 10 11  2  0
  2 12  1  0
 12 13  2  0
 12 14  1  0
M  END
>  <rName>  (1215) 
D-aMeNle_but3enyl

>  <PQ_SYMBOL>  (1215) 
D-aMeNle_but3enyl

>  <FULL_NAME>  (1215) 
Fmoc-(R)-2-(7-octenyl)alanine

>  <IUPAC_CONDENSED>  (1215) 
D-aMeNle(but-3-enyl)

>  <IUPAC>  (1215) 
(2R)-2-amino-2-methyldec-9-enoic acid

>  <TYPE>  (1215) 
Backbone

>  <CLASS>  (1215) 
alpha

>  <ANALOG>  (1215) 
X

>  <MOL_WT>  (1215) 
199.294

>  <LOGP>  (1215) 
2.315

>  <TPSA>  (1215) 
63.32000000000001

>  <POPULARITY>  (1215) 
9

>  <PROTECTED>  (1215) 
TRUE

>  <SMILES>  (1215) 
N[C@](C)(CCCCCCC=C)C(=O)O

>  <INCHIKEY>  (1215) 
JWZFECWHKQLRGK-LLVKDONJSA-N

$$$$
Met_SO
     RDKit          2D

 10  9  0  0  0  0  0  0  0  0999 V2000
   -1.2717    1.9622    0.0000 N   0  0  0  0  0  0  0  0  0  0  0  0
   -1.1946    0.4642    0.0000 C   0  0  0  0  0  0  0  0  0  0  0  0
    0.1413   -0.2180    0.0000 C   0  0  0  0  0  0  0  0  0  0  0  0
    1.4001    0.5978    0.0000 C   0  0  0  0  0  0  0  0  0  0  0  0
    2.7359   -0.0845    0.0000 S   0  0  0  0  0  4  0  0  0  0  0  0
    2.8131   -1.5825    0.0000 O   0  0  0  0  0  0  0  0  0  0  0  0
    3.9947    0.7313    0.0000 C   0  0  0  0  0  0  0  0  0  0  0  0
   -2.4533   -0.3516    0.0000 C   0  0  0  0  0  0  0  0  0  0  0  0
   -2.3762   -1.8496    0.0000 O   0  0  0  0  0  0  0  0  0  0  0  0
   -3.7892    0.3306    0.0000 O   0  0  0  0  0  0  0  0  0  0  0  0
  2  1  1  1
  2  3  1  0
  3  4  1  0
  4  5  1  0
  5  6  2  0
  5  7  1  6
  2  8  1  0
  8  9  2  0
  8 10  1  0
M  END
>  <rName>  (1216) 
Met_SO

>  <PQ_SYMBOL>  (1216) 
Met_SO

>  <FULL_NAME>  (1216) 
S-OXYMETHIONINE

>  <IUPAC_CONDENSED>  (1216) 
Met(S-O)

>  <IUPAC>  (1216) 
(2S)-2-amino-4-((S)-methylsulfinyl)butanoic acid

>  <TYPE>  (1216) 
Backbone

>  <CLASS>  (1216) 
alpha

>  <ANALOG>  (1216) 
Met

>  <MOL_WT>  (1216) 
165.214

>  <LOGP>  (1216) 
-0.8331000000000004

>  <TPSA>  (1216) 
80.39

>  <POPULARITY>  (1216) 
21.2

>  <PROTECTED>  (1216) 
TRUE

>  <SMILES>  (1216) 
N[C@@H](CC[S@@](=O)C)C(=O)O

>  <INCHIKEY>  (1216) 
QEFRNWWLZKMPFJ-MFXDVPHUSA-N

$$$$
Pip_4carbonyl
     RDKit          2D

 10 10  0  0  0  0  0  0  0  0999 V2000
   -0.2551   -1.5451    0.0000 N   0  0  0  0  0  0  0  0  0  0  0  0
   -0.6466   -0.0971    0.0000 C   0  0  0  0  0  0  0  0  0  0  0  0
    0.4117    0.9659    0.0000 C   0  0  0  0  0  0  0  0  0  0  0  0
    1.8615    0.5809    0.0000 C   0  0  0  0  0  0  0  0  0  0  0  0
    2.9197    1.6440    0.0000 O   0  0  0  0  0  0  0  0  0  0  0  0
    2.2529   -0.8671    0.0000 C   0  0  0  0  0  0  0  0  0  0  0  0
    1.1946   -1.9301    0.0000 C   0  0  0  0  0  0  0  0  0  0  0  0
   -2.0963    0.2879    0.0000 C   0  0  0  0  0  0  0  0  0  0  0  0
   -3.1546   -0.7752    0.0000 O   0  0  0  0  0  0  0  0  0  0  0  0
   -2.4878    1.7359    0.0000 O   0  0  0  0  0  0  0  0  0  0  0  0
  1  2  1  0
  2  3  1  0
  3  4  1  0
  4  5  2  0
  4  6  1  0
  6  7  1  0
  2  8  1  6
  8  9  2  0
  8 10  1  0
  7  1  1  0
M  END
>  <rName>  (1217) 
Pip_4carbonyl

>  <PQ_SYMBOL>  (1217) 
Pip_4carbonyl

>  <FULL_NAME>  (1217) 
4-OXO-L-PIPECOLIC ACID

>  <IUPAC_CONDENSED>  (1217) 
Pip(4-carbonyl)

>  <IUPAC>  (1217) 
(2S)-4-oxopiperidine-2-carboxylic acid

>  <TYPE>  (1217) 
Backbone

>  <CLASS>  (1217) 
alpha

>  <ANALOG>  (1217) 
Pro

>  <MOL_WT>  (1217) 
143.142

>  <LOGP>  (1217) 
-0.6079000000000006

>  <TPSA>  (1217) 
66.4

>  <POPULARITY>  (1217) 
20

>  <PROTECTED>  (1217) 
TRUE

>  <SMILES>  (1217) 
N1[C@@H](CC(=O)CC1)C(=O)O

>  <INCHIKEY>  (1217) 
UAISREBYDOFHJY-YFKPBYRVSA-N

$$$$
SeMet
     RDKit          2D

  9  8  0  0  0  0  0  0  0  0999 V2000
    0.7616   -1.8791    0.0000 N   0  0  0  0  0  0  0  0  0  0  0  0
    0.8459   -0.3815    0.0000 C   0  0  0  0  0  0  0  0  0  0  0  0
   -0.4089    0.4403    0.0000 C   0  0  0  0  0  0  0  0  0  0  0  0
   -1.7480   -0.2354    0.0000 C   0  0  0  0  0  0  0  0  0  0  0  0
   -3.0029    0.5864    0.0000 Se  0  0  0  0  0  2  0  0  0  0  0  0
   -4.3420   -0.0894    0.0000 C   0  0  0  0  0  0  0  0  0  0  0  0
    2.1851    0.2943    0.0000 C   0  0  0  0  0  0  0  0  0  0  0  0
    2.2694    1.7919    0.0000 O   0  0  0  0  0  0  0  0  0  0  0  0
    3.4399   -0.5275    0.0000 O   0  0  0  0  0  0  0  0  0  0  0  0
  2  1  1  1
  2  3  1  0
  3  4  1  0
  4  5  1  0
  5  6  1  0
  2  7  1  0
  7  8  2  0
  7  9  1  0
M  END
>  <rName>  (1218) 
SeMet

>  <PQ_SYMBOL>  (1218) 
SeMet

>  <FULL_NAME>  (1218) 
SELENOMETHIONINE

>  <IUPAC_CONDENSED>  (1218) 
SeMet

>  <IUPAC>  (1218) 
(2S)-2-amino-4-(methylselanyl)butanoic acid

>  <TYPE>  (1218) 
Backbone

>  <CLASS>  (1218) 
alpha

>  <ANALOG>  (1218) 
Met

>  <MOL_WT>  (1218) 
196.10799999999998

>  <LOGP>  (1218) 
-0.041000000000000425

>  <TPSA>  (1218) 
63.32000000000001

>  <POPULARITY>  (1218) 
48.6

>  <PROTECTED>  (1218) 
TRUE

>  <SMILES>  (1218) 
N[C@@H](CC[Se]C)C(=O)O

>  <INCHIKEY>  (1218) 
RJFAYQIBOAGBLC-BYPYZUCNSA-N

$$$$
NMe-Cys_Me
     RDKit          2D

  9  8  0  0  0  0  0  0  0  0999 V2000
    1.7749    1.1003    0.0000 N   0  0  0  0  0  0  0  0  0  0  0  0
    1.6244    2.5927    0.0000 C   0  0  0  0  0  0  0  0  0  0  0  0
    0.5577    0.2238    0.0000 C   0  0  0  0  0  0  0  0  0  0  0  0
   -0.8100    0.8396    0.0000 C   0  0  0  0  0  0  0  0  0  0  0  0
   -2.0273   -0.0369    0.0000 S   0  0  0  0  0  0  0  0  0  0  0  0
   -3.3950    0.5789    0.0000 C   0  0  0  0  0  0  0  0  0  0  0  0
    0.7082   -1.2687    0.0000 C   0  0  0  0  0  0  0  0  0  0  0  0
    2.0760   -1.8845    0.0000 O   0  0  0  0  0  0  0  0  0  0  0  0
   -0.5090   -2.1452    0.0000 O   0  0  0  0  0  0  0  0  0  0  0  0
  1  2  1  0
  1  3  1  0
  3  4  1  6
  4  5  1  0
  5  6  1  0
  3  7  1  0
  7  8  2  0
  7  9  1  0
M  END
>  <rName>  (1219) 
NMe-Cys_Me

>  <PQ_SYMBOL>  (1219) 
NMe-Cys_Me

>  <FULL_NAME>  (1219) 
N,S-DIMETHYLCYSTEINE

>  <IUPAC_CONDENSED>  (1219) 
Me-Cys(Me)

>  <IUPAC>  (1219) 
(2R)-2-(methylamino)-3-(methylsulfanyl)propanoic acid

>  <TYPE>  (1219) 
Backbone

>  <CLASS>  (1219) 
alpha

>  <ANALOG>  (1219) 
Cys

>  <MOL_WT>  (1219) 
149.215

>  <LOGP>  (1219) 
0.021999999999999964

>  <TPSA>  (1219) 
49.33

>  <POPULARITY>  (1219) 
28.7

>  <PROTECTED>  (1219) 
TRUE

>  <SMILES>  (1219) 
N(C)[C@@H](CSC)C(=O)O

>  <INCHIKEY>  (1219) 
WQSNCKZPJSHACB-BYPYZUCNSA-N

$$$$
NcPrCH2-G
     RDKit          2D

  9  9  0  0  0  0  0  0  0  0999 V2000
   -0.1088   -0.0552    0.0000 N   0  0  0  0  0  0  0  0  0  0  0  0
    1.1478   -0.8743    0.0000 C   0  0  0  0  0  0  0  0  0  0  0  0
    2.4855   -0.1956    0.0000 C   0  0  0  0  0  0  0  0  0  0  0  0
    3.9833   -0.2766    0.0000 C   0  0  0  0  0  0  0  0  0  0  0  0
    3.3046    1.0610    0.0000 C   0  0  0  0  0  0  0  0  0  0  0  0
   -1.4465   -0.7339    0.0000 C   0  0  0  0  0  0  0  0  0  0  0  0
   -2.7031    0.0852    0.0000 C   0  0  0  0  0  0  0  0  0  0  0  0
   -2.6220    1.5830    0.0000 O   0  0  0  0  0  0  0  0  0  0  0  0
   -4.0407   -0.5936    0.0000 O   0  0  0  0  0  0  0  0  0  0  0  0
  1  2  1  0
  2  3  1  0
  3  4  1  0
  4  5  1  0
  1  6  1  0
  6  7  1  0
  7  8  2  0
  7  9  1  0
  5  3  1  0
M  END
>  <rName>  (1220) 
NcPrCH2-G

>  <PQ_SYMBOL>  (1220) 
NcPrCH2-G

>  <FULL_NAME>  (1220) 
N-CYCLOPROPYLMETHYL GLYCINE

>  <IUPAC_CONDENSED>  (1220) 
cPrCH2-Gly

>  <IUPAC>  (1220) 
2-(cyclopropylmethylamino)acetic acid

>  <TYPE>  (1220) 
Backbone

>  <CLASS>  (1220) 
alpha

>  <ANALOG>  (1220) 
Gly

>  <MOL_WT>  (1220) 
129.15900000000002

>  <LOGP>  (1220) 
0.07059999999999994

>  <TPSA>  (1220) 
49.33

>  <POPULARITY>  (1220) 
17.8

>  <PROTECTED>  (1220) 
TRUE

>  <SMILES>  (1220) 
N(CC1(CC1))CC(=O)O

>  <INCHIKEY>  (1220) 
JOWMUWBEMDOCKB-UHFFFAOYSA-N

$$$$
Cys_EtOH
     RDKit          2D

 10  9  0  0  0  0  0  0  0  0999 V2000
   -1.4166   -1.8843    0.0000 N   0  0  0  0  0  0  0  0  0  0  0  0
   -1.4265   -0.3844    0.0000 C   0  0  0  0  0  0  0  0  0  0  0  0
   -0.1324    0.3741    0.0000 C   0  0  0  0  0  0  0  0  0  0  0  0
    1.1716   -0.3673    0.0000 S   0  0  0  0  0  0  0  0  0  0  0  0
    2.4657    0.3912    0.0000 C   0  0  0  0  0  0  0  0  0  0  0  0
    3.7696   -0.3503    0.0000 C   0  0  0  0  0  0  0  0  0  0  0  0
    5.0637    0.4082    0.0000 O   0  0  0  0  0  0  0  0  0  0  0  0
   -2.7304    0.3571    0.0000 C   0  0  0  0  0  0  0  0  0  0  0  0
   -2.7402    1.8571    0.0000 O   0  0  0  0  0  0  0  0  0  0  0  0
   -4.0245   -0.4014    0.0000 O   0  0  0  0  0  0  0  0  0  0  0  0
  2  1  1  6
  2  3  1  0
  3  4  1  0
  4  5  1  0
  5  6  1  0
  6  7  1  0
  2  8  1  0
  8  9  2  0
  8 10  1  0
M  END
>  <rName>  (1221) 
Cys_EtOH

>  <PQ_SYMBOL>  (1221) 
Cys_EtOH

>  <FULL_NAME>  (1221) 
HYDROXYETHYLCYSTEINE

>  <IUPAC_CONDENSED>  (1221) 
Cys(EtOH)

>  <IUPAC>  (1221) 
(2R)-2-amino-3-((2-hydroxyethyl)sulfanyl)propanoic acid

>  <TYPE>  (1221) 
Backbone

>  <CLASS>  (1221) 
alpha

>  <ANALOG>  (1221) 
Cys

>  <MOL_WT>  (1221) 
165.214

>  <LOGP>  (1221) 
-0.8762000000000001

>  <TPSA>  (1221) 
83.55

>  <POPULARITY>  (1221) 
22.3

>  <PROTECTED>  (1221) 
TRUE

>  <SMILES>  (1221) 
N[C@@H](CSCCO)C(=O)O

>  <INCHIKEY>  (1221) 
MWFRVMDVLYIXJF-BYPYZUCNSA-N

$$$$
NMe-Thr_Me
     RDKit          2D

 10  9  0  0  0  0  0  0  0  0999 V2000
   -0.7033    1.6772    0.0000 N   0  0  0  0  0  0  0  0  0  0  0  0
   -2.1490    2.0771    0.0000 C   0  0  0  0  0  0  0  0  0  0  0  0
   -0.3268    0.2252    0.0000 C   0  0  0  0  0  0  0  0  0  0  0  0
    1.1189   -0.1748    0.0000 C   0  0  0  0  0  0  0  0  0  0  0  0
    2.1881    0.8773    0.0000 O   0  0  0  0  0  0  0  0  0  0  0  0
    3.6338    0.4773    0.0000 C   0  0  0  0  0  0  0  0  0  0  0  0
    1.4954   -1.6267    0.0000 C   0  0  0  0  0  0  0  0  0  0  0  0
   -1.3960   -0.8269    0.0000 C   0  0  0  0  0  0  0  0  0  0  0  0
   -2.8417   -0.4269    0.0000 O   0  0  0  0  0  0  0  0  0  0  0  0
   -1.0195   -2.2788    0.0000 O   0  0  0  0  0  0  0  0  0  0  0  0
  1  2  1  0
  3  1  1  1
  3  4  1  0
  4  5  1  0
  5  6  1  0
  4  7  1  6
  3  8  1  0
  8  9  2  0
  8 10  1  0
M  END
>  <rName>  (1222) 
NMe-Thr_Me

>  <PQ_SYMBOL>  (1222) 
NMe-Thr_Me

>  <FULL_NAME>  (1222) 
N,O-dimethyl-L-threonine

>  <IUPAC_CONDENSED>  (1222) 
Me-Thr(Me)

>  <IUPAC>  (1222) 
(2S,3R)-3-methoxy-2-(methylamino)butanoic acid

>  <TYPE>  (1222) 
Backbone

>  <CLASS>  (1222) 
alpha

>  <ANALOG>  (1222) 
Thr

>  <MOL_WT>  (1222) 
147.174

>  <LOGP>  (1222) 
-0.30610000000000054

>  <TPSA>  (1222) 
58.56

>  <POPULARITY>  (1222) 
15.4

>  <PROTECTED>  (1222) 
TRUE

>  <SMILES>  (1222) 
N(C)[C@@H]([C@H](OC)C)C(=O)O

>  <INCHIKEY>  (1222) 
ZLRWZUVKLXZLRT-UHNVWZDZSA-N

$$$$
Cys_palmitoyl
     RDKit          2D

 24 23  0  0  0  0  0  0  0  0999 V2000
    6.5296    2.5321    0.0000 N   0  0  0  0  0  0  0  0  0  0  0  0
    7.6689    1.5564    0.0000 C   0  0  0  0  0  0  0  0  0  0  0  0
    7.3936    0.0819    0.0000 C   0  0  0  0  0  0  0  0  0  0  0  0
    5.9790   -0.4169    0.0000 S   0  0  0  0  0  0  0  0  0  0  0  0
    5.7037   -1.8914    0.0000 C   0  0  0  0  0  0  0  0  0  0  0  0
    6.8430   -2.8671    0.0000 O   0  0  0  0  0  0  0  0  0  0  0  0
    4.2890   -2.3903    0.0000 C   0  0  0  0  0  0  0  0  0  0  0  0
    3.1497   -1.4146    0.0000 C   0  0  0  0  0  0  0  0  0  0  0  0
    1.7351   -1.9135    0.0000 C   0  0  0  0  0  0  0  0  0  0  0  0
    0.5958   -0.9378    0.0000 C   0  0  0  0  0  0  0  0  0  0  0  0
   -0.8188   -1.4366    0.0000 C   0  0  0  0  0  0  0  0  0  0  0  0
   -1.9582   -0.4609    0.0000 C   0  0  0  0  0  0  0  0  0  0  0  0
   -3.3728   -0.9598    0.0000 C   0  0  0  0  0  0  0  0  0  0  0  0
   -4.5121    0.0159    0.0000 C   0  0  0  0  0  0  0  0  0  0  0  0
   -5.9267   -0.4829    0.0000 C   0  0  0  0  0  0  0  0  0  0  0  0
   -7.0661    0.4927    0.0000 C   0  0  0  0  0  0  0  0  0  0  0  0
   -8.4807   -0.0061    0.0000 C   0  0  0  0  0  0  0  0  0  0  0  0
   -9.6200    0.9696    0.0000 C   0  0  0  0  0  0  0  0  0  0  0  0
  -11.0346    0.4707    0.0000 C   0  0  0  0  0  0  0  0  0  0  0  0
  -12.1739    1.4464    0.0000 C   0  0  0  0  0  0  0  0  0  0  0  0
  -13.5886    0.9476    0.0000 C   0  0  0  0  0  0  0  0  0  0  0  0
    9.0835    2.0553    0.0000 C   0  0  0  0  0  0  0  0  0  0  0  0
   10.2228    1.0796    0.0000 O   0  0  0  0  0  0  0  0  0  0  0  0
    9.3588    3.5298    0.0000 O   0  0  0  0  0  0  0  0  0  0  0  0
  2  1  1  6
  2  3  1  0
  3  4  1  0
  4  5  1  0
  5  6  2  0
  5  7  1  0
  7  8  1  0
  8  9  1  0
  9 10  1  0
 10 11  1  0
 11 12  1  0
 12 13  1  0
 13 14  1  0
 14 15  1  0
 15 16  1  0
 16 17  1  0
 17 18  1  0
 18 19  1  0
 19 20  1  0
 20 21  1  0
  2 22  1  0
 22 23  2  0
 22 24  1  0
M  END
>  <rName>  (1223) 
Cys_palmitoyl

>  <PQ_SYMBOL>  (1223) 
Cys_palmitoyl

>  <FULL_NAME>  (1223) 
S-PALMITOYL-L-CYSTEINE

>  <IUPAC_CONDENSED>  (1223) 
Cys(palmitoyl)

>  <IUPAC>  (1223) 
(2R)-2-amino-3-((1-oxohexadecyl)sulfanyl)propanoic acid

>  <TYPE>  (1223) 
Backbone

>  <CLASS>  (1223) 
alpha

>  <ANALOG>  (1223) 
Cys

>  <MOL_WT>  (1223) 
359.5760000000001

>  <LOGP>  (1223) 
5.139400000000005

>  <TPSA>  (1223) 
80.39

>  <POPULARITY>  (1223) 
18.9

>  <PROTECTED>  (1223) 
TRUE

>  <SMILES>  (1223) 
N[C@@H](CSC(=O)CCCCCCCCCCCCCCC)C(=O)O

>  <INCHIKEY>  (1223) 
FRAMWPHPFIXRCP-KRWDZBQOSA-N

$$$$
Pro_4ScHex
     RDKit          2D

 14 15  0  0  0  0  0  0  0  0999 V2000
   -2.0158    1.6013    0.0000 N   0  0  0  0  0  0  0  0  0  0  0  0
   -2.3178    0.1320    0.0000 C   0  0  0  0  0  0  0  0  0  0  0  0
   -1.0138   -0.6092    0.0000 C   0  0  0  0  0  0  0  0  0  0  0  0
    0.0942    0.4019    0.0000 C   0  0  0  0  0  0  0  0  0  0  0  0
   -0.5251    1.7681    0.0000 C   0  0  0  0  0  0  0  0  0  0  0  0
    1.5635    0.0999    0.0000 C   0  0  0  0  0  0  0  0  0  0  0  0
    2.0365   -1.3236    0.0000 C   0  0  0  0  0  0  0  0  0  0  0  0
    3.5058   -1.6256    0.0000 C   0  0  0  0  0  0  0  0  0  0  0  0
    4.5020   -0.5042    0.0000 C   0  0  0  0  0  0  0  0  0  0  0  0
    4.0290    0.9192    0.0000 C   0  0  0  0  0  0  0  0  0  0  0  0
    2.5597    1.2213    0.0000 C   0  0  0  0  0  0  0  0  0  0  0  0
   -3.6840   -0.4872    0.0000 C   0  0  0  0  0  0  0  0  0  0  0  0
   -3.8308   -1.9800    0.0000 O   0  0  0  0  0  0  0  0  0  0  0  0
   -4.9034    0.3863    0.0000 O   0  0  0  0  0  0  0  0  0  0  0  0
  1  2  1  0
  2  3  1  0
  3  4  1  0
  4  5  1  0
  4  6  1  6
  6  7  1  0
  7  8  1  0
  8  9  1  0
  9 10  1  0
 10 11  1  0
  2 12  1  1
 12 13  2  0
 12 14  1  0
  5  1  1  0
 11  6  1  0
M  END
>  <rName>  (1224) 
Pro_4ScHex

>  <PQ_SYMBOL>  (1224) 
Pro_4ScHex

>  <FULL_NAME>  (1224) 
(4S)-4-cyclohexyl-L-proline

>  <IUPAC_CONDENSED>  (1224) 
Pro(4S-cHex)

>  <IUPAC>  (1224) 
(2S,4S)-4-cyclohexylpyrrolidine-2-carboxylic acid

>  <TYPE>  (1224) 
Backbone

>  <CLASS>  (1224) 
alpha

>  <ANALOG>  (1224) 
Pro

>  <MOL_WT>  (1224) 
197.278

>  <LOGP>  (1224) 
1.6294

>  <TPSA>  (1224) 
49.33

>  <POPULARITY>  (1224) 
15.5

>  <PROTECTED>  (1224) 
TRUE

>  <SMILES>  (1224) 
N1[C@@H](C[C@H](C1)C2(CCCCC2))C(=O)O

>  <INCHIKEY>  (1224) 
XRZWVSXEDRYQGC-ZJUUUORDSA-N

$$$$
Ac6c_4Ph
     RDKit          2D

 16 17  0  0  0  0  0  0  0  0999 V2000
    3.5049   -1.4159    0.0000 N   0  0  0  0  0  0  0  0  0  0  0  0
    2.4325   -0.3671    0.0000 C   0  0  0  0  0  0  0  0  0  0  0  0
    1.5858   -1.6052    0.0000 C   0  0  0  0  0  0  0  0  0  0  0  0
    0.0902   -1.4910    0.0000 C   0  0  0  0  0  0  0  0  0  0  0  0
   -0.5588   -0.1386    0.0000 C   0  0  0  0  0  0  0  0  0  0  0  0
    0.2880    1.0995    0.0000 C   0  0  0  0  0  0  0  0  0  0  0  0
    1.7836    0.9853    0.0000 C   0  0  0  0  0  0  0  0  0  0  0  0
   -2.0544   -0.0244    0.0000 C   0  0  0  0  0  0  0  0  0  0  0  0
   -2.7033    1.3279    0.0000 C   0  0  0  0  0  0  0  0  0  0  0  0
   -4.1990    1.4421    0.0000 C   0  0  0  0  0  0  0  0  0  0  0  0
   -5.0457    0.2040    0.0000 C   0  0  0  0  0  0  0  0  0  0  0  0
   -4.3968   -1.1484    0.0000 C   0  0  0  0  0  0  0  0  0  0  0  0
   -2.9011   -1.2626    0.0000 C   0  0  0  0  0  0  0  0  0  0  0  0
    3.6517    0.5068    0.0000 C   0  0  0  0  0  0  0  0  0  0  0  0
    3.5044    1.9996    0.0000 O   0  0  0  0  0  0  0  0  0  0  0  0
    5.0181   -0.1120    0.0000 O   0  0  0  0  0  0  0  0  0  0  0  0
  1  2  1  0
  2  3  1  0
  3  4  1  0
  4  5  1  0
  5  6  1  0
  6  7  1  0
  5  8  1  0
  8  9  2  0
  9 10  1  0
 10 11  2  0
 11 12  1  0
 12 13  2  0
  2 14  1  0
 14 15  2  0
 14 16  1  0
  7  2  1  0
 13  8  1  0
M  END
>  <rName>  (1225) 
Ac6c_4Ph

>  <PQ_SYMBOL>  (1225) 
Ac6c_4Ph

>  <FULL_NAME>  (1225) 
cis-1-amino-4-phenylcyclohexane-1-carboxylic acid

>  <IUPAC_CONDENSED>  (1225) 
Ac6c(4-Ph)

>  <IUPAC>  (1225) 
1-amino-4-phenylcyclohexanecarboxylic acid

>  <TYPE>  (1225) 
Backbone

>  <CLASS>  (1225) 
alpha

>  <ANALOG>  (1225) 
X

>  <MOL_WT>  (1225) 
219.28400000000002

>  <LOGP>  (1225) 
2.1262999999999996

>  <TPSA>  (1225) 
63.32000000000001

>  <POPULARITY>  (1225) 
12

>  <PROTECTED>  (1225) 
TRUE

>  <SMILES>  (1225) 
NC1(CCC(CC1)c2(ccccc2))C(=O)O

>  <INCHIKEY>  (1225) 
TWAYLYPZRSXEOS-UHFFFAOYSA-N

$$$$
Pyl
     RDKit          2D

 18 18  0  0  0  0  0  0  0  0999 V2000
    5.1394   -1.8054    0.0000 N   0  0  0  0  0  0  0  0  0  0  0  0
    5.1009   -0.3059    0.0000 C   0  0  0  0  0  0  0  0  0  0  0  0
    3.7830    0.4105    0.0000 C   0  0  0  0  0  0  0  0  0  0  0  0
    2.5037   -0.3726    0.0000 C   0  0  0  0  0  0  0  0  0  0  0  0
    1.1858    0.3438    0.0000 C   0  0  0  0  0  0  0  0  0  0  0  0
   -0.0935   -0.4394    0.0000 C   0  0  0  0  0  0  0  0  0  0  0  0
   -1.4114    0.2770    0.0000 N   0  0  0  0  0  0  0  0  0  0  0  0
   -2.6907   -0.5061    0.0000 C   0  0  0  0  0  0  0  0  0  0  0  0
   -2.6522   -2.0056    0.0000 O   0  0  0  0  0  0  0  0  0  0  0  0
   -4.0086    0.2103    0.0000 C   0  0  0  0  0  0  0  0  0  0  0  0
   -4.2037    1.6976    0.0000 N   0  0  0  0  0  0  0  0  0  0  0  0
   -5.6784    1.9716    0.0000 C   0  0  0  0  0  0  0  0  0  0  0  0
   -6.3948    0.6538    0.0000 C   0  0  0  0  0  0  0  0  0  0  0  0
   -5.3628   -0.4348    0.0000 C   0  0  0  0  0  0  0  0  0  0  0  0
   -5.6369   -1.9096    0.0000 C   0  0  0  0  0  0  0  0  0  0  0  0
    6.3803    0.4772    0.0000 C   0  0  0  0  0  0  0  0  0  0  0  0
    6.3417    1.9767    0.0000 O   0  0  0  0  0  0  0  0  0  0  0  0
    7.6981   -0.2392    0.0000 O   0  0  0  0  0  0  0  0  0  0  0  0
  2  1  1  1
  2  3  1  0
  3  4  1  0
  4  5  1  0
  5  6  1  0
  6  7  1  0
  7  8  1  0
  8  9  2  0
 10  8  1  1
 10 11  1  0
 11 12  2  0
 12 13  1  0
 13 14  1  0
 14 15  1  6
  2 16  1  0
 16 17  2  0
 16 18  1  0
 14 10  1  0
M  END
>  <rName>  (1226) 
Pyl

>  <PQ_SYMBOL>  (1226) 
Pyl

>  <FULL_NAME>  (1226) 
PYRROLYSINE

>  <IUPAC_CONDENSED>  (1226) 
Pyl

>  <IUPAC>  (1226) 
(2S)-2-amino-6-((2R,3R)-3-methyl-1-azacyclopent-5-en-2-ylcarbonylamino)hexanoic acid

>  <TYPE>  (1226) 
Backbone

>  <CLASS>  (1226) 
alpha

>  <ANALOG>  (1226) 
Lys

>  <MOL_WT>  (1226) 
255.318

>  <LOGP>  (1226) 
0.1640000000000001

>  <TPSA>  (1226) 
104.77999999999999

>  <POPULARITY>  (1226) 
11.7

>  <PROTECTED>  (1226) 
FALSE

>  <SMILES>  (1226) 
N[C@@H](CCCCNC(=O)[C@@H]1(N=CC[C@H]1C))C(=O)O

>  <INCHIKEY>  (1226) 
ZFOMKMMPBOQKMC-KXUCPTDWSA-N

$$$$
Ala_thiazol5yl
     RDKit          2D

 11 11  0  0  0  0  0  0  0  0999 V2000
   -0.9461    1.6947    0.0000 N   0  0  0  0  0  0  0  0  0  0  0  0
   -1.3100    0.2395    0.0000 C   0  0  0  0  0  0  0  0  0  0  0  0
   -0.2317   -0.8032    0.0000 C   0  0  0  0  0  0  0  0  0  0  0  0
    1.2105   -0.3908    0.0000 C   0  0  0  0  0  0  0  0  0  0  0  0
    2.3919   -1.3151    0.0000 C   0  0  0  0  0  0  0  0  0  0  0  0
    3.6360   -0.4772    0.0000 N   0  0  0  0  0  0  0  0  0  0  0  0
    3.2236    0.9650    0.0000 C   0  0  0  0  0  0  0  0  0  0  0  0
    1.7245    1.0184    0.0000 S   0  0  0  0  0  0  0  0  0  0  0  0
   -2.7522   -0.1729    0.0000 C   0  0  0  0  0  0  0  0  0  0  0  0
   -3.1161   -1.6281    0.0000 O   0  0  0  0  0  0  0  0  0  0  0  0
   -3.8304    0.8698    0.0000 O   0  0  0  0  0  0  0  0  0  0  0  0
  2  1  1  1
  2  3  1  0
  3  4  1  0
  4  5  2  0
  5  6  1  0
  6  7  2  0
  7  8  1  0
  2  9  1  0
  9 10  2  0
  9 11  1  0
  8  4  1  0
M  END
>  <rName>  (1227) 
Ala_thiazol5yl

>  <PQ_SYMBOL>  (1227) 
Ala_thiazol5yl

>  <FULL_NAME>  (1227) 
Thiazole-histidine

>  <IUPAC_CONDENSED>  (1227) 
Ala(thiazol-5-yl)

>  <IUPAC>  (1227) 
(2S)-2-amino-3-(thiazol-5-yl)propanoic acid

>  <TYPE>  (1227) 
Backbone

>  <CLASS>  (1227) 
alpha

>  <ANALOG>  (1227) 
Phe

>  <MOL_WT>  (1227) 
172.20899999999997

>  <LOGP>  (1227) 
0.09749999999999986

>  <TPSA>  (1227) 
76.21

>  <POPULARITY>  (1227) 
8

>  <PROTECTED>  (1227) 
TRUE

>  <SMILES>  (1227) 
N[C@@H](Cc1(cncs1))C(=O)O

>  <INCHIKEY>  (1227) 
XEGDVXZYFYKJJR-YFKPBYRVSA-N

$$$$
Nle_SH
     RDKit          2D

 10  9  0  0  0  0  0  0  0  0999 V2000
   -1.4166    1.8843    0.0000 N   0  0  0  0  0  0  0  0  0  0  0  0
   -1.4265    0.3844    0.0000 C   0  0  0  0  0  0  0  0  0  0  0  0
   -0.1324   -0.3741    0.0000 C   0  0  0  0  0  0  0  0  0  0  0  0
    1.1716    0.3673    0.0000 C   0  0  0  0  0  0  0  0  0  0  0  0
    2.4657   -0.3912    0.0000 C   0  0  0  0  0  0  0  0  0  0  0  0
    3.7696    0.3503    0.0000 C   0  0  0  0  0  0  0  0  0  0  0  0
    5.0637   -0.4082    0.0000 S   0  0  0  0  0  0  0  0  0  0  0  0
   -2.7304   -0.3571    0.0000 C   0  0  0  0  0  0  0  0  0  0  0  0
   -2.7402   -1.8571    0.0000 O   0  0  0  0  0  0  0  0  0  0  0  0
   -4.0245    0.4014    0.0000 O   0  0  0  0  0  0  0  0  0  0  0  0
  2  1  1  1
  2  3  1  0
  3  4  1  0
  4  5  1  0
  5  6  1  0
  6  7  1  0
  2  8  1  0
  8  9  2  0
  8 10  1  0
M  END
>  <rName>  (1228) 
Nle_SH

>  <PQ_SYMBOL>  (1228) 
Nle_SH

>  <FULL_NAME>  (1228) 
6-Sulfanyl-L-norleucine

>  <IUPAC_CONDENSED>  (1228) 
Nle(SH)

>  <IUPAC>  (1228) 
(2S)-2-amino-6-sulfanylhexanoic acid

>  <TYPE>  (1228) 
Backbone

>  <CLASS>  (1228) 
alpha

>  <ANALOG>  (1228) 
X

>  <MOL_WT>  (1228) 
163.24200000000002

>  <LOGP>  (1228) 
0.49839999999999995

>  <TPSA>  (1228) 
63.32000000000001

>  <POPULARITY>  (1228) 
14.8

>  <PROTECTED>  (1228) 
TRUE

>  <SMILES>  (1228) 
N[C@@H](CCCCS)C(=O)O

>  <INCHIKEY>  (1228) 
HBMWPJLCTYKAGL-YFKPBYRVSA-N

$$$$
Nva_SH
     RDKit          2D

  9  8  0  0  0  0  0  0  0  0999 V2000
   -0.7616    1.8791    0.0000 N   0  0  0  0  0  0  0  0  0  0  0  0
   -0.8459    0.3815    0.0000 C   0  0  0  0  0  0  0  0  0  0  0  0
    0.4089   -0.4403    0.0000 C   0  0  0  0  0  0  0  0  0  0  0  0
    1.7480    0.2354    0.0000 C   0  0  0  0  0  0  0  0  0  0  0  0
    3.0029   -0.5864    0.0000 C   0  0  0  0  0  0  0  0  0  0  0  0
    4.3420    0.0894    0.0000 S   0  0  0  0  0  0  0  0  0  0  0  0
   -2.1851   -0.2943    0.0000 C   0  0  0  0  0  0  0  0  0  0  0  0
   -2.2694   -1.7919    0.0000 O   0  0  0  0  0  0  0  0  0  0  0  0
   -3.4399    0.5275    0.0000 O   0  0  0  0  0  0  0  0  0  0  0  0
  2  1  1  1
  2  3  1  0
  3  4  1  0
  4  5  1  0
  5  6  1  0
  2  7  1  0
  7  8  2  0
  7  9  1  0
M  END
>  <rName>  (1229) 
Nva_SH

>  <PQ_SYMBOL>  (1229) 
Nva_SH

>  <FULL_NAME>  (1229) 
5-Mercapto-norvaline

>  <IUPAC_CONDENSED>  (1229) 
Nva(SH)

>  <IUPAC>  (1229) 
(2S)-2-amino-5-sulfanylpentanoic acid

>  <TYPE>  (1229) 
Backbone

>  <CLASS>  (1229) 
alpha

>  <ANALOG>  (1229) 
X

>  <MOL_WT>  (1229) 
149.215

>  <LOGP>  (1229) 
0.10830000000000006

>  <TPSA>  (1229) 
63.32000000000001

>  <POPULARITY>  (1229) 
11.4

>  <PROTECTED>  (1229) 
TRUE

>  <SMILES>  (1229) 
N[C@@H](CCCS)C(=O)O

>  <INCHIKEY>  (1229) 
TUMGFDAVJXBHMU-BYPYZUCNSA-N

$$$$
Val_23dehydro
     RDKit          2D

  8  7  0  0  0  0  0  0  0  0999 V2000
    0.0000    2.0625    0.0000 N   0  0  0  0  0  0  0  0  0  0  0  0
    0.0000    0.5625    0.0000 C   0  0  0  0  0  0  0  0  0  0  0  0
   -1.2990   -0.1875    0.0000 C   0  0  0  0  0  0  0  0  0  0  0  0
   -2.5981    0.5625    0.0000 C   0  0  0  0  0  0  0  0  0  0  0  0
   -1.2990   -1.6875    0.0000 C   0  0  0  0  0  0  0  0  0  0  0  0
    1.2990   -0.1875    0.0000 C   0  0  0  0  0  0  0  0  0  0  0  0
    1.2990   -1.6875    0.0000 O   0  0  0  0  0  0  0  0  0  0  0  0
    2.5981    0.5625    0.0000 O   0  0  0  0  0  0  0  0  0  0  0  0
  1  2  1  0
  2  3  2  0
  3  4  1  0
  3  5  1  0
  2  6  1  0
  6  7  2  0
  6  8  1  0
M  END
>  <rName>  (1230) 
Val_23dehydro

>  <PQ_SYMBOL>  (1230) 
Val_23dehydro

>  <FULL_NAME>  (1230) 
Dehydrovaline

>  <IUPAC_CONDENSED>  (1230) 
Val(2,3-dehydro)

>  <IUPAC>  (1230) 
2-amino-3-methylbut-2-enoic acid

>  <TYPE>  (1230) 
Backbone

>  <CLASS>  (1230) 
unknown

>  <ANALOG>  (1230) 
Val

>  <MOL_WT>  (1230) 
115.13199999999998

>  <LOGP>  (1230) 
0.32359999999999983

>  <TPSA>  (1230) 
63.32000000000001

>  <POPULARITY>  (1230) 
20

>  <PROTECTED>  (1230) 
TRUE

>  <SMILES>  (1230) 
NC(=C(C)C)C(=O)O

>  <INCHIKEY>  (1230) 
MNDXTFKURVNNSY-UHFFFAOYSA-N

$$$$
Cys_SEt
     RDKit          2D

 10  9  0  0  0  0  0  0  0  0999 V2000
   -1.4166   -1.8843    0.0000 N   0  0  0  0  0  0  0  0  0  0  0  0
   -1.4265   -0.3844    0.0000 C   0  0  0  0  0  0  0  0  0  0  0  0
   -0.1324    0.3741    0.0000 C   0  0  0  0  0  0  0  0  0  0  0  0
    1.1716   -0.3673    0.0000 S   0  0  0  0  0  0  0  0  0  0  0  0
    2.4657    0.3912    0.0000 S   0  0  0  0  0  0  0  0  0  0  0  0
    3.7696   -0.3503    0.0000 C   0  0  0  0  0  0  0  0  0  0  0  0
    5.0637    0.4082    0.0000 C   0  0  0  0  0  0  0  0  0  0  0  0
   -2.7304    0.3571    0.0000 C   0  0  0  0  0  0  0  0  0  0  0  0
   -2.7402    1.8571    0.0000 O   0  0  0  0  0  0  0  0  0  0  0  0
   -4.0245   -0.4014    0.0000 O   0  0  0  0  0  0  0  0  0  0  0  0
  2  1  1  6
  2  3  1  0
  3  4  1  0
  4  5  1  0
  5  6  1  0
  6  7  1  0
  2  8  1  0
  8  9  2  0
  8 10  1  0
M  END
>  <rName>  (1231) 
Cys_SEt

>  <PQ_SYMBOL>  (1231) 
Cys_SEt

>  <FULL_NAME>  (1231) 
3-(ethyldisulfanyl)-L-alanine

>  <IUPAC_CONDENSED>  (1231) 
Cys(SEt)

>  <IUPAC>  (1231) 
(2R)-2-amino-3-(ethylsulfanylsulfanyl)propanoic acid

>  <TYPE>  (1231) 
Backbone

>  <CLASS>  (1231) 
alpha

>  <ANALOG>  (1231) 
Cys

>  <MOL_WT>  (1231) 
181.282

>  <LOGP>  (1231) 
0.7996000000000001

>  <TPSA>  (1231) 
63.32000000000001

>  <POPULARITY>  (1231) 
17.5

>  <PROTECTED>  (1231) 
FALSE

>  <SMILES>  (1231) 
N[C@@H](CSSCC)C(=O)O

>  <INCHIKEY>  (1231) 
YIMFYOCZTDBZJL-BYPYZUCNSA-N

$$$$
Sec
     RDKit          2D

  7  6  0  0  0  0  0  0  0  0999 V2000
    0.5797   -1.7367    0.0000 N   0  0  0  0  0  0  0  0  0  0  0  0
    0.2514   -0.2730    0.0000 C   0  0  0  0  0  0  0  0  0  0  0  0
    1.3548    0.7431    0.0000 C   0  0  0  0  0  0  0  0  0  0  0  0
    2.7865    0.2956    0.0000 Se  0  0  0  0  0  2  0  0  0  0  0  0
   -1.1803    0.1745    0.0000 C   0  0  0  0  0  0  0  0  0  0  0  0
   -1.5086    1.6381    0.0000 O   0  0  0  0  0  0  0  0  0  0  0  0
   -2.2837   -0.8417    0.0000 O   0  0  0  0  0  0  0  0  0  0  0  0
  2  1  1  6
  2  3  1  0
  3  4  1  0
  2  5  1  0
  5  6  2  0
  5  7  1  0
M  END
>  <rName>  (1232) 
Sec

>  <PQ_SYMBOL>  (1232) 
Sec

>  <FULL_NAME>  (1232) 
SELENOCYSTEINE

>  <IUPAC_CONDENSED>  (1232) 
Sec

>  <IUPAC>  (1232) 
(2R)-2-amino-3-selanylpropanoic acid

>  <TYPE>  (1232) 
Backbone

>  <CLASS>  (1232) 
alpha

>  <ANALOG>  (1232) 
Cys

>  <MOL_WT>  (1232) 
168.054

>  <LOGP>  (1232) 
-1.2826000000000002

>  <TPSA>  (1232) 
63.32000000000001

>  <POPULARITY>  (1232) 
26.5

>  <PROTECTED>  (1232) 
TRUE

>  <SMILES>  (1232) 
N[C@@H](C[SeH])C(=O)O

>  <INCHIKEY>  (1232) 
ZKZBPNGNEQAJSX-REOHCLBHSA-N

$$$$
bPhe
     RDKit          2D

 12 12  0  0  0  0  0  0  0  0999 V2000
   -1.0786   -1.8814    0.0000 N   0  0  0  0  0  0  0  0  0  0  0  0
   -0.6074   -0.4573    0.0000 C   0  0  0  0  0  0  0  0  0  0  0  0
    0.8615   -0.1534    0.0000 C   0  0  0  0  0  0  0  0  0  0  0  0
    1.3327    1.2707    0.0000 C   0  0  0  0  0  0  0  0  0  0  0  0
    2.8016    1.5746    0.0000 C   0  0  0  0  0  0  0  0  0  0  0  0
    3.7992    0.4545    0.0000 C   0  0  0  0  0  0  0  0  0  0  0  0
    3.3280   -0.9696    0.0000 C   0  0  0  0  0  0  0  0  0  0  0  0
    1.8591   -1.2735    0.0000 C   0  0  0  0  0  0  0  0  0  0  0  0
   -1.6051    0.6628    0.0000 C   0  0  0  0  0  0  0  0  0  0  0  0
   -3.0740    0.3588    0.0000 C   0  0  0  0  0  0  0  0  0  0  0  0
   -3.5452   -1.0652    0.0000 O   0  0  0  0  0  0  0  0  0  0  0  0
   -4.0716    1.4790    0.0000 O   0  0  0  0  0  0  0  0  0  0  0  0
  1  2  1  0
  2  3  1  0
  3  4  2  0
  4  5  1  0
  5  6  2  0
  6  7  1  0
  7  8  2  0
  2  9  1  0
  9 10  1  0
 10 11  2  0
 10 12  1  0
  8  3  1  0
M  END
>  <rName>  (1233) 
bPhe

>  <PQ_SYMBOL>  (1233) 
bPhe

>  <FULL_NAME>  (1233) 
(3S)-3-amino-3-phenylpropanoic acid

>  <IUPAC_CONDENSED>  (1233) 
bPhe

>  <IUPAC>  (1233) 
3-amino-3-phenylpropanoic acid

>  <TYPE>  (1233) 
Backbone

>  <CLASS>  (1233) 
beta

>  <ANALOG>  (1233) 
X

>  <MOL_WT>  (1233) 
165.19199999999998

>  <LOGP>  (1233) 
1.1611

>  <TPSA>  (1233) 
63.32000000000001

>  <POPULARITY>  (1233) 
25.5

>  <PROTECTED>  (1233) 
TRUE

>  <SMILES>  (1233) 
NC(c1(ccccc1))CC(=O)O

>  <INCHIKEY>  (1233) 
UJOYFRCOTPUKAK-UHFFFAOYSA-N

$$$$
Pra_Me
     RDKit          2D

  9  8  0  0  0  0  0  0  0  0999 V2000
    0.4111   -1.6826    0.0000 N   0  0  0  0  0  0  0  0  0  0  0  0
    0.8313   -0.2427    0.0000 C   0  0  0  0  0  0  0  0  0  0  0  0
   -0.2055    0.8413    0.0000 C   0  0  0  0  0  0  0  0  0  0  0  0
   -1.6627    0.4853    0.0000 C   0  0  0  0  0  0  0  0  0  0  0  0
   -3.1198    0.1293    0.0000 C   0  0  0  0  0  0  0  0  0  0  0  0
   -4.5770   -0.2267    0.0000 C   0  0  0  0  0  0  0  0  0  0  0  0
    2.2885    0.1133    0.0000 C   0  0  0  0  0  0  0  0  0  0  0  0
    2.7088    1.5533    0.0000 O   0  0  0  0  0  0  0  0  0  0  0  0
    3.3253   -0.9706    0.0000 O   0  0  0  0  0  0  0  0  0  0  0  0
  2  1  1  1
  2  3  1  0
  3  4  1  0
  4  5  3  0
  5  6  1  0
  2  7  1  0
  7  8  2  0
  7  9  1  0
M  END
>  <rName>  (1234) 
Pra_Me

>  <PQ_SYMBOL>  (1234) 
Pra_Me

>  <FULL_NAME>  (1234) 
(2S)-2-azanylhex-4-ynoic acid

>  <IUPAC_CONDENSED>  (1234) 
Pra(Me)

>  <IUPAC>  (1234) 
(2S)-2-aminohex-4-ynoic acid

>  <TYPE>  (1234) 
Backbone

>  <CLASS>  (1234) 
alpha

>  <ANALOG>  (1234) 
Leu

>  <MOL_WT>  (1234) 
127.14299999999997

>  <LOGP>  (1234) 
-0.18829999999999997

>  <TPSA>  (1234) 
63.32000000000001

>  <POPULARITY>  (1234) 
8.8

>  <PROTECTED>  (1234) 
TRUE

>  <SMILES>  (1234) 
N[C@@H](CC#CC)C(=O)O

>  <INCHIKEY>  (1234) 
VDWGCMRALYSYJV-YFKPBYRVSA-N

$$$$
D-Dap_3RMe
     RDKit          2D

  8  7  0  0  0  0  0  0  0  0999 V2000
    0.0000   -2.0625    0.0000 N   0  0  0  0  0  0  0  0  0  0  0  0
    0.0000   -0.5625    0.0000 C   0  0  0  0  0  0  0  0  0  0  0  0
   -1.2990    0.1875    0.0000 C   0  0  0  0  0  0  0  0  0  0  0  0
   -2.5981   -0.5625    0.0000 C   0  0  0  0  0  0  0  0  0  0  0  0
   -1.2990    1.6875    0.0000 N   0  0  0  0  0  0  0  0  0  0  0  0
    1.2990    0.1875    0.0000 C   0  0  0  0  0  0  0  0  0  0  0  0
    1.2990    1.6875    0.0000 O   0  0  0  0  0  0  0  0  0  0  0  0
    2.5981   -0.5625    0.0000 O   0  0  0  0  0  0  0  0  0  0  0  0
  2  1  1  6
  2  3  1  0
  3  4  1  1
  3  5  1  0
  2  6  1  0
  6  7  2  0
  6  8  1  0
M  END
>  <rName>  (1235) 
D-Dap_3RMe

>  <PQ_SYMBOL>  (1235) 
D-Dap_3RMe

>  <FULL_NAME>  (1235) 
(2R,3R)-2,3-DIAMINOBUTANOIC ACID

>  <IUPAC_CONDENSED>  (1235) 
D-Dap(3R-Me)

>  <IUPAC>  (1235) 
(2R,3R)-2,3-diaminobutanoic acid

>  <TYPE>  (1235) 
Backbone

>  <CLASS>  (1235) 
alpha

>  <ANALOG>  (1235) 
X

>  <MOL_WT>  (1235) 
118.136

>  <LOGP>  (1235) 
-1.2544999999999995

>  <TPSA>  (1235) 
89.34

>  <POPULARITY>  (1235) 
11.5

>  <PROTECTED>  (1235) 
TRUE

>  <SMILES>  (1235) 
N[C@H]([C@@H](C)N)C(=O)O

>  <INCHIKEY>  (1235) 
SXGMVGOVILIERA-PWNYCUMCSA-N

$$$$
bAla_3RPh_3Br
     RDKit          2D

 13 13  0  0  0  0  0  0  0  0999 V2000
   -1.2291   -1.8553    0.0000 N   0  0  0  0  0  0  0  0  0  0  0  0
   -0.9051   -0.3907    0.0000 C   0  0  0  0  0  0  0  0  0  0  0  0
    0.5252    0.0611    0.0000 C   0  0  0  0  0  0  0  0  0  0  0  0
    0.8491    1.5257    0.0000 C   0  0  0  0  0  0  0  0  0  0  0  0
    2.2795    1.9775    0.0000 C   0  0  0  0  0  0  0  0  0  0  0  0
    3.3859    0.9646    0.0000 C   0  0  0  0  0  0  0  0  0  0  0  0
    3.0620   -0.5000    0.0000 C   0  0  0  0  0  0  0  0  0  0  0  0
    4.1684   -1.5128    0.0000 Br  0  0  0  0  0  0  0  0  0  0  0  0
    1.6316   -0.9517    0.0000 C   0  0  0  0  0  0  0  0  0  0  0  0
   -2.0116    0.6222    0.0000 C   0  0  0  0  0  0  0  0  0  0  0  0
   -3.4419    0.1704    0.0000 C   0  0  0  0  0  0  0  0  0  0  0  0
   -3.7658   -1.2942    0.0000 O   0  0  0  0  0  0  0  0  0  0  0  0
   -4.5483    1.1832    0.0000 O   0  0  0  0  0  0  0  0  0  0  0  0
  2  1  1  1
  2  3  1  0
  3  4  2  0
  4  5  1  0
  5  6  2  0
  6  7  1  0
  7  8  1  0
  7  9  2  0
  2 10  1  0
 10 11  1  0
 11 12  2  0
 11 13  1  0
  9  3  1  0
M  END
>  <rName>  (1236) 
bAla_3RPh_3Br

>  <PQ_SYMBOL>  (1236) 
bAla_3RPh_3Br

>  <FULL_NAME>  (1236) 
3-bromo-S-beta-phenylalanine

>  <IUPAC_CONDENSED>  (1236) 
bAla(3R-Ph(3-Br))

>  <IUPAC>  (1236) 
(3S)-3-amino-3-(3-bromophenyl)propanoic acid

>  <TYPE>  (1236) 
Backbone

>  <CLASS>  (1236) 
beta

>  <ANALOG>  (1236) 
X

>  <MOL_WT>  (1236) 
244.08799999999997

>  <LOGP>  (1236) 
1.9236000000000002

>  <TPSA>  (1236) 
63.32000000000001

>  <POPULARITY>  (1236) 
11.5

>  <PROTECTED>  (1236) 
TRUE

>  <SMILES>  (1236) 
N[C@H](c1(cccc(Br)c1))CC(=O)O

>  <INCHIKEY>  (1236) 
RLYAXKJHJUXZOT-QMMMGPOBSA-N

$$$$
Tyr_3Me
     RDKit          2D

 14 14  0  0  0  0  0  0  0  0999 V2000
   -2.0094    1.6916    0.0000 N   0  0  0  0  0  0  0  0  0  0  0  0
   -2.3243    0.2250    0.0000 C   0  0  0  0  0  0  0  0  0  0  0  0
   -1.2116   -0.7809    0.0000 C   0  0  0  0  0  0  0  0  0  0  0  0
    0.2159   -0.3203    0.0000 C   0  0  0  0  0  0  0  0  0  0  0  0
    0.5308    1.1463    0.0000 C   0  0  0  0  0  0  0  0  0  0  0  0
    1.9583    1.6069    0.0000 C   0  0  0  0  0  0  0  0  0  0  0  0
    3.0710    0.6009    0.0000 C   0  0  0  0  0  0  0  0  0  0  0  0
    4.4985    1.0615    0.0000 O   0  0  0  0  0  0  0  0  0  0  0  0
    2.7561   -0.8657    0.0000 C   0  0  0  0  0  0  0  0  0  0  0  0
    3.8688   -1.8716    0.0000 C   0  0  0  0  0  0  0  0  0  0  0  0
    1.3286   -1.3263    0.0000 C   0  0  0  0  0  0  0  0  0  0  0  0
   -3.7518   -0.2356    0.0000 C   0  0  0  0  0  0  0  0  0  0  0  0
   -4.0666   -1.7022    0.0000 O   0  0  0  0  0  0  0  0  0  0  0  0
   -4.8644    0.7704    0.0000 O   0  0  0  0  0  0  0  0  0  0  0  0
  2  1  1  1
  2  3  1  0
  3  4  1  0
  4  5  1  0
  5  6  2  0
  6  7  1  0
  7  8  1  0
  7  9  2  0
  9 10  1  0
  9 11  1  0
  2 12  1  0
 12 13  2  0
 12 14  1  0
 11  4  2  0
M  END
>  <rName>  (1237) 
Tyr_3Me

>  <PQ_SYMBOL>  (1237) 
Tyr_3Me

>  <FULL_NAME>  (1237) 
3-methyl-L-tyrosine

>  <IUPAC_CONDENSED>  (1237) 
Tyr(3-Me)

>  <IUPAC>  (1237) 
(2S)-2-amino-3-(4-hydroxy-3-methylphenyl)propanoic acid

>  <TYPE>  (1237) 
Backbone

>  <CLASS>  (1237) 
alpha

>  <ANALOG>  (1237) 
Tyr

>  <MOL_WT>  (1237) 
195.21799999999996

>  <LOGP>  (1237) 
0.6550199999999999

>  <TPSA>  (1237) 
83.55

>  <POPULARITY>  (1237) 
11.5

>  <PROTECTED>  (1237) 
TRUE

>  <SMILES>  (1237) 
N[C@@H](Cc1(ccc(O)c(C)c1))C(=O)O

>  <INCHIKEY>  (1237) 
MQHLULPKDLJASZ-QMMMGPOBSA-N

$$$$
D-Glu-NH2
     RDKit          2D

 10  9  0  0  0  0  0  0  0  0999 V2000
    1.2717   -1.9622    0.0000 N   0  0  0  0  0  0  0  0  0  0  0  0
    1.1946   -0.4642    0.0000 C   0  0  0  0  0  0  0  0  0  0  0  0
    2.4533    0.3516    0.0000 C   0  0  0  0  0  0  0  0  0  0  0  0
    2.3762    1.8496    0.0000 O   0  0  0  0  0  0  0  0  0  0  0  0
    3.7892   -0.3306    0.0000 N   0  0  0  0  0  0  0  0  0  0  0  0
   -0.1413    0.2180    0.0000 C   0  0  0  0  0  0  0  0  0  0  0  0
   -1.4001   -0.5978    0.0000 C   0  0  0  0  0  0  0  0  0  0  0  0
   -2.7359    0.0845    0.0000 C   0  0  0  0  0  0  0  0  0  0  0  0
   -2.8131    1.5825    0.0000 O   0  0  0  0  0  0  0  0  0  0  0  0
   -3.9947   -0.7313    0.0000 O   0  0  0  0  0  0  0  0  0  0  0  0
  2  1  1  6
  2  3  1  0
  3  4  2  0
  3  5  1  0
  2  6  1  0
  6  7  1  0
  7  8  1  0
  8  9  2  0
  8 10  1  0
M  END
>  <rName>  (1238) 
D-Glu-NH2

>  <PQ_SYMBOL>  (1238) 
D-Glu-NH2

>  <FULL_NAME>  (1238) 
D-alpha-glutamine

>  <IUPAC_CONDENSED>  (1238) 
D-Glu-NH2

>  <IUPAC>  (1238) 
(4R)-4-amino-4-carbamoylbutanoic acid

>  <TYPE>  (1238) 
Backbone

>  <CLASS>  (1238) 
gamma

>  <ANALOG>  (1238) 
X

>  <MOL_WT>  (1238) 
146.14600000000002

>  <LOGP>  (1238) 
-1.3362000000000005

>  <TPSA>  (1238) 
106.41000000000001

>  <POPULARITY>  (1238) 
25.3

>  <PROTECTED>  (1238) 
TRUE

>  <SMILES>  (1238) 
N[C@@H](C(=O)N)CCC(=O)O

>  <INCHIKEY>  (1238) 
AEFLONBTGZFSGQ-GSVOUGTGSA-N

$$$$
D-Gly_CO2H
     RDKit          2D

  8  7  0  0  0  0  0  0  0  0999 V2000
   -0.0000   -2.0625    0.0000 N   0  0  0  0  0  0  0  0  0  0  0  0
   -0.0000   -0.5625    0.0000 C   0  0  0  0  0  0  0  0  0  0  0  0
    1.2990    0.1875    0.0000 C   0  0  0  0  0  0  0  0  0  0  0  0
    1.2990    1.6875    0.0000 O   0  0  0  0  0  0  0  0  0  0  0  0
    2.5981   -0.5625    0.0000 O   0  0  0  0  0  0  0  0  0  0  0  0
   -1.2990    0.1875    0.0000 C   0  0  0  0  0  0  0  0  0  0  0  0
   -1.2990    1.6875    0.0000 O   0  0  0  0  0  0  0  0  0  0  0  0
   -2.5981   -0.5625    0.0000 O   0  0  0  0  0  0  0  0  0  0  0  0
  1  2  1  0
  2  3  1  0
  3  4  2  0
  3  5  1  0
  2  6  1  0
  6  7  2  0
  6  8  1  0
M  END
>  <rName>  (1239) 
D-Gly_CO2H

>  <PQ_SYMBOL>  (1239) 
D-Gly_CO2H

>  <FULL_NAME>  (1239) 
D-Aminomalonic acid

>  <IUPAC_CONDENSED>  (1239) 
D-Gly(CO2H)

>  <IUPAC>  (1239) 
2-aminopropanedioic acid

>  <TYPE>  (1239) 
Backbone

>  <CLASS>  (1239) 
alpha

>  <ANALOG>  (1239) 
X

>  <MOL_WT>  (1239) 
119.07599999999998

>  <LOGP>  (1239) 
-1.5171000000000001

>  <TPSA>  (1239) 
100.62000000000002

>  <POPULARITY>  (1239) 
7.1

>  <PROTECTED>  (1239) 
FALSE

>  <SMILES>  (1239) 
NC(C(=O)O)C(=O)O

>  <INCHIKEY>  (1239) 
JINBYESILADKFW-UHFFFAOYSA-N

$$$$
imino-Abu
     RDKit          2D

  7  6  0  0  0  0  0  0  0  0999 V2000
   -0.5797   -1.7367    0.0000 N   0  0  0  0  0  0  0  0  0  0  0  0
   -0.2514   -0.2730    0.0000 C   0  0  0  0  0  0  0  0  0  0  0  0
   -1.3548    0.7431    0.0000 C   0  0  0  0  0  0  0  0  0  0  0  0
   -2.7865    0.2956    0.0000 C   0  0  0  0  0  0  0  0  0  0  0  0
    1.1803    0.1745    0.0000 C   0  0  0  0  0  0  0  0  0  0  0  0
    1.5086    1.6381    0.0000 O   0  0  0  0  0  0  0  0  0  0  0  0
    2.2837   -0.8417    0.0000 O   0  0  0  0  0  0  0  0  0  0  0  0
  1  2  2  0
  2  3  1  0
  3  4  1  0
  2  5  1  0
  5  6  2  0
  5  7  1  0
M  END
>  <rName>  (1240) 
imino-Abu

>  <PQ_SYMBOL>  (1240) 
imino-Abu

>  <FULL_NAME>  (1240) 
2-iminobutanoic acid

>  <IUPAC_CONDENSED>  (1240) 
imino-Abu

>  <IUPAC>  (1240) 
2-iminobutanoic acid

>  <TYPE>  (1240) 
Backbone

>  <CLASS>  (1240) 
unknown

>  <ANALOG>  (1240) 
Ala

>  <MOL_WT>  (1240) 
101.10499999999998

>  <LOGP>  (1240) 
0.5007699999999999

>  <TPSA>  (1240) 
61.150000000000006

>  <POPULARITY>  (1240) 
13.5

>  <PROTECTED>  (1240) 
FALSE

>  <SMILES>  (1240) 
N=C(CC)C(=O)O

>  <INCHIKEY>  (1240) 
WRBRCYPPGUCRHW-UHFFFAOYSA-N

$$$$
D-aNH2Apm
     RDKit          2D

 13 12  0  0  0  0  0  0  0  0999 V2000
    2.7138    1.6520    0.0000 N   0  0  0  0  0  0  0  0  0  0  0  0
    2.1874    0.2474    0.0000 C   0  0  0  0  0  0  0  0  0  0  0  0
    1.6611   -1.1572    0.0000 N   0  0  0  0  0  0  0  0  0  0  0  0
    0.7828    0.7738    0.0000 C   0  0  0  0  0  0  0  0  0  0  0  0
   -0.3753   -0.1795    0.0000 C   0  0  0  0  0  0  0  0  0  0  0  0
   -1.7799    0.3469    0.0000 C   0  0  0  0  0  0  0  0  0  0  0  0
   -2.9381   -0.6064    0.0000 C   0  0  0  0  0  0  0  0  0  0  0  0
   -4.3427   -0.0801    0.0000 C   0  0  0  0  0  0  0  0  0  0  0  0
   -4.5892    1.3995    0.0000 O   0  0  0  0  0  0  0  0  0  0  0  0
   -5.5008   -1.0333    0.0000 O   0  0  0  0  0  0  0  0  0  0  0  0
    3.5921   -0.2789    0.0000 C   0  0  0  0  0  0  0  0  0  0  0  0
    4.7502    0.6743    0.0000 O   0  0  0  0  0  0  0  0  0  0  0  0
    3.8386   -1.7585    0.0000 O   0  0  0  0  0  0  0  0  0  0  0  0
  1  2  1  0
  2  3  1  0
  2  4  1  0
  4  5  1  0
  5  6  1  0
  6  7  1  0
  7  8  1  0
  8  9  2  0
  8 10  1  0
  2 11  1  0
 11 12  2  0
 11 13  1  0
M  END
>  <rName>  (1241) 
D-aNH2Apm

>  <PQ_SYMBOL>  (1241) 
D-aNH2Apm

>  <FULL_NAME>  (1241) 
D-Diaminopimelic acid

>  <IUPAC_CONDENSED>  (1241) 
D-aNH2Apm

>  <IUPAC>  (1241) 
2,2-diaminoheptanedioic acid

>  <TYPE>  (1241) 
Backbone

>  <CLASS>  (1241) 
alpha

>  <ANALOG>  (1241) 
X

>  <MOL_WT>  (1241) 
190.199

>  <LOGP>  (1241) 
-0.6703000000000006

>  <TPSA>  (1241) 
126.64

>  <POPULARITY>  (1241) 
1.1

>  <PROTECTED>  (1241) 
FALSE

>  <SMILES>  (1241) 
NC(N)(CCCCC(=O)O)C(=O)O

>  <INCHIKEY>  (1241) 
HAWJUUUDZFZUKG-UHFFFAOYSA-N

$$$$
Gla-al
     RDKit          2D

 12 11  0  0  0  0  0  0  0  0999 V2000
    1.7705   -1.1949    0.0000 N   0  0  0  0  0  0  0  0  0  0  0  0
    1.7233    0.3043    0.0000 C   0  0  0  0  0  0  0  0  0  0  0  0
    2.9981    1.0948    0.0000 C   0  0  0  0  0  0  0  0  0  0  0  0
    4.3201    0.3860    0.0000 O   0  0  0  0  0  0  0  0  0  0  0  0
    0.4014    1.0131    0.0000 C   0  0  0  0  0  0  0  0  0  0  0  0
   -0.8735    0.2226    0.0000 C   0  0  0  0  0  0  0  0  0  0  0  0
   -2.1954    0.9314    0.0000 C   0  0  0  0  0  0  0  0  0  0  0  0
   -2.2426    2.4307    0.0000 O   0  0  0  0  0  0  0  0  0  0  0  0
   -3.4702    0.1409    0.0000 O   0  0  0  0  0  0  0  0  0  0  0  0
   -0.8263   -1.2766    0.0000 C   0  0  0  0  0  0  0  0  0  0  0  0
    0.4957   -1.9854    0.0000 O   0  0  0  0  0  0  0  0  0  0  0  0
   -2.1011   -2.0671    0.0000 O   0  0  0  0  0  0  0  0  0  0  0  0
  2  1  1  1
  2  3  1  0
  3  4  2  0
  2  5  1  0
  5  6  1  0
  6  7  1  0
  7  8  2  0
  7  9  1  0
  6 10  1  0
 10 11  2  0
 10 12  1  0
M  END
>  <rName>  (1242) 
Gla-al

>  <PQ_SYMBOL>  (1242) 
Gla-al

>  <FULL_NAME>  (1242) 
Carboxyglutamic acid

>  <IUPAC_CONDENSED>  (1242) 
Gla-al

>  <IUPAC>  (1242) 
2-((2S)-2-amino-3-oxopropyl)malonic acid

>  <TYPE>  (1242) 
Backbone

>  <CLASS>  (1242) 
gamma

>  <ANALOG>  (1242) 
X

>  <MOL_WT>  (1242) 
175.14

>  <LOGP>  (1242) 
-1.3118999999999998

>  <TPSA>  (1242) 
117.69000000000001

>  <POPULARITY>  (1242) 
3.5

>  <PROTECTED>  (1242) 
FALSE

>  <SMILES>  (1242) 
N[C@H](C=O)CC(C(=O)O)C(=O)O

>  <INCHIKEY>  (1242) 
BNOPCVOBPMHOGG-VKHMYHEASA-N

$$$$
Gly_Bn_3NO2
     RDKit          2D

 15 15  0  0  0  0  0  0  0  0999 V2000
   -2.6461    1.6149    0.0000 N   0  0  0  0  0  0  0  0  0  0  0  0
   -2.6827    0.1154    0.0000 C   0  0  0  0  0  0  0  0  0  0  0  0
   -1.4023   -0.6660    0.0000 C   0  0  0  0  0  0  0  0  0  0  0  0
   -0.0854    0.0521    0.0000 C   0  0  0  0  0  0  0  0  0  0  0  0
   -0.0488    1.5516    0.0000 C   0  0  0  0  0  0  0  0  0  0  0  0
    1.2681    2.2698    0.0000 C   0  0  0  0  0  0  0  0  0  0  0  0
    2.5485    1.4884    0.0000 C   0  0  0  0  0  0  0  0  0  0  0  0
    2.5119   -0.0112    0.0000 C   0  0  0  0  0  0  0  0  0  0  0  0
    1.1950   -0.7293    0.0000 C   0  0  0  0  0  0  0  0  0  0  0  0
    3.7923   -0.7926    0.0000 N   0  0  0  0  0  0  0  0  0  0  0  0
    5.1093   -0.0745    0.0000 O   0  0  0  0  0  0  0  0  0  0  0  0
    3.7558   -2.2922    0.0000 O   0  0  0  0  0  0  0  0  0  0  0  0
   -3.9996   -0.6028    0.0000 C   0  0  0  0  0  0  0  0  0  0  0  0
   -4.0361   -2.1023    0.0000 O   0  0  0  0  0  0  0  0  0  0  0  0
   -5.2800    0.1787    0.0000 O   0  0  0  0  0  0  0  0  0  0  0  0
  1  2  1  0
  2  3  2  3
  3  4  1  0
  4  5  1  0
  5  6  2  0
  6  7  1  0
  7  8  2  0
  8  9  1  0
  8 10  1  0
 10 11  2  0
 10 12  1  0
  2 13  1  0
 13 14  2  0
 13 15  1  0
  9  4  2  0
M  CHG  2  10   1  12  -1
M  END
>  <rName>  (1243) 
Gly_Bn_3NO2

>  <PQ_SYMBOL>  (1243) 
Gly_Bn_3NO2

>  <FULL_NAME>  (1243) 
2-amino-3-(3-nitrophenyl)prop-2-enoic acid

>  <IUPAC_CONDENSED>  (1243) 
Gly(Bn(3-NO2))

>  <IUPAC>  (1243) 
2-amino-3-(3-nitrophenyl)prop-2-enoic acid

>  <TYPE>  (1243) 
Backbone

>  <CLASS>  (1243) 
unknown

>  <ANALOG>  (1243) 
Phe

>  <MOL_WT>  (1243) 
208.17299999999994

>  <LOGP>  (1243) 
0.9790000000000001

>  <TPSA>  (1243) 
106.46

>  <POPULARITY>  (1243) 
4.2

>  <PROTECTED>  (1243) 
FALSE

>  <SMILES>  (1243) 
NC(=Cc1(cccc(c1)[N+](=O)[O-]))C(=O)O

>  <INCHIKEY>  (1243) 
XVEGZFITLIOXOZ-UHFFFAOYSA-N

$$$$
Phe_b_bdiMe
     RDKit          2D

 14 14  0  0  0  0  0  0  0  0999 V2000
    2.4457   -1.9928    0.0000 N   0  0  0  0  0  0  0  0  0  0  0  0
    1.9124   -0.5908    0.0000 C   0  0  0  0  0  0  0  0  0  0  0  0
    0.4316   -0.3517    0.0000 C   0  0  0  0  0  0  0  0  0  0  0  0
    0.6708    1.1291    0.0000 C   0  0  0  0  0  0  0  0  0  0  0  0
    0.1924   -1.8325    0.0000 C   0  0  0  0  0  0  0  0  0  0  0  0
   -1.0492   -0.1125    0.0000 C   0  0  0  0  0  0  0  0  0  0  0  0
   -1.9967   -1.2754    0.0000 C   0  0  0  0  0  0  0  0  0  0  0  0
   -3.4776   -1.0362    0.0000 C   0  0  0  0  0  0  0  0  0  0  0  0
   -4.0108    0.3658    0.0000 C   0  0  0  0  0  0  0  0  0  0  0  0
   -3.0633    1.5287    0.0000 C   0  0  0  0  0  0  0  0  0  0  0  0
   -1.5825    1.2895    0.0000 C   0  0  0  0  0  0  0  0  0  0  0  0
    2.8599    0.5720    0.0000 C   0  0  0  0  0  0  0  0  0  0  0  0
    2.3266    1.9740    0.0000 O   0  0  0  0  0  0  0  0  0  0  0  0
    4.3407    0.3328    0.0000 O   0  0  0  0  0  0  0  0  0  0  0  0
  2  1  1  1
  2  3  1  0
  3  4  1  0
  3  5  1  0
  3  6  1  0
  6  7  2  0
  7  8  1  0
  8  9  2  0
  9 10  1  0
 10 11  2  0
  2 12  1  0
 12 13  2  0
 12 14  1  0
 11  6  1  0
M  END
>  <rName>  (1244) 
Phe_b_bdiMe

>  <PQ_SYMBOL>  (1244) 
Phe_b_bdiMe

>  <FULL_NAME>  (1244) 
(2S)-2-amino-3-methyl-3-phenylbutanoic acid

>  <IUPAC_CONDENSED>  (1244) 
Phe(b,b-diMe)

>  <IUPAC>  (1244) 
(2S)-2-amino-3-methyl-3-phenylbutanoic acid

>  <TYPE>  (1244) 
Backbone

>  <CLASS>  (1244) 
alpha

>  <ANALOG>  (1244) 
Phe

>  <MOL_WT>  (1244) 
193.24599999999998

>  <LOGP>  (1244) 
1.3761

>  <TPSA>  (1244) 
63.32000000000001

>  <POPULARITY>  (1244) 
5.3

>  <PROTECTED>  (1244) 
FALSE

>  <SMILES>  (1244) 
N[C@@H](C(C)(C)c1(ccccc1))C(=O)O

>  <INCHIKEY>  (1244) 
OSRAZODPBFLQJP-SECBINFHSA-N

$$$$
D-xiIle
     RDKit          2D

  9  8  0  0  0  0  0  0  0  0999 V2000
    0.0000    2.3333    0.0000 N   0  0  0  0  0  0  0  0  0  0  0  0
    0.0000    0.8333    0.0000 C   0  0  0  0  0  0  0  0  0  0  0  0
   -1.2990    0.0833    0.0000 C   0  0  0  0  0  0  0  0  0  0  0  0
   -2.5981    0.8333    0.0000 C   0  0  0  0  0  0  0  0  0  0  0  0
   -1.2990   -1.4167    0.0000 C   0  0  0  0  0  0  0  0  0  0  0  0
   -0.0000   -2.1667    0.0000 C   0  0  0  0  0  0  0  0  0  0  0  0
    1.2990    0.0833    0.0000 C   0  0  0  0  0  0  0  0  0  0  0  0
    1.2990   -1.4167    0.0000 O   0  0  0  0  0  0  0  0  0  0  0  0
    2.5981    0.8333    0.0000 O   0  0  0  0  0  0  0  0  0  0  0  0
  2  1  1  1
  2  3  1  0
  3  4  1  0
  3  5  1  0
  5  6  1  0
  2  7  1  0
  7  8  2  0
  7  9  1  0
M  END
>  <rName>  (1245) 
D-xiIle

>  <PQ_SYMBOL>  (1245) 
D-xiIle

>  <FULL_NAME>  (1245) 
(2R)-2-amino-3-methylpentanoic acid

>  <IUPAC_CONDENSED>  (1245) 
D-xiIle

>  <IUPAC>  (1245) 
(2R)-2-amino-3-methylpentanoic acid

>  <TYPE>  (1245) 
Backbone

>  <CLASS>  (1245) 
alpha

>  <ANALOG>  (1245) 
Ile

>  <MOL_WT>  (1245) 
131.175

>  <LOGP>  (1245) 
0.44439999999999985

>  <TPSA>  (1245) 
63.32000000000001

>  <POPULARITY>  (1245) 
10.6

>  <PROTECTED>  (1245) 
FALSE

>  <SMILES>  (1245) 
N[C@H](C(C)CC)C(=O)O

>  <INCHIKEY>  (1245) 
AGPKZVBTJJNPAG-BRJRFNKRSA-N

$$$$
xiIle
     RDKit          2D

  9  8  0  0  0  0  0  0  0  0999 V2000
    0.0000    2.3333    0.0000 N   0  0  0  0  0  0  0  0  0  0  0  0
    0.0000    0.8333    0.0000 C   0  0  0  0  0  0  0  0  0  0  0  0
   -1.2990    0.0833    0.0000 C   0  0  0  0  0  0  0  0  0  0  0  0
   -2.5981    0.8333    0.0000 C   0  0  0  0  0  0  0  0  0  0  0  0
   -1.2990   -1.4167    0.0000 C   0  0  0  0  0  0  0  0  0  0  0  0
   -0.0000   -2.1667    0.0000 C   0  0  0  0  0  0  0  0  0  0  0  0
    1.2990    0.0833    0.0000 C   0  0  0  0  0  0  0  0  0  0  0  0
    1.2990   -1.4167    0.0000 O   0  0  0  0  0  0  0  0  0  0  0  0
    2.5981    0.8333    0.0000 O   0  0  0  0  0  0  0  0  0  0  0  0
  2  1  1  6
  2  3  1  0
  3  4  1  0
  3  5  1  0
  5  6  1  0
  2  7  1  0
  7  8  2  0
  7  9  1  0
M  END
>  <rName>  (1246) 
xiIle

>  <PQ_SYMBOL>  (1246) 
xiIle

>  <FULL_NAME>  (1246) 
(2S)-2-amino-3-methylpentanoic acid

>  <IUPAC_CONDENSED>  (1246) 
xiIle

>  <IUPAC>  (1246) 
(2S)-2-amino-3-methylpentanoic acid

>  <TYPE>  (1246) 
Backbone

>  <CLASS>  (1246) 
alpha

>  <ANALOG>  (1246) 
Ile

>  <MOL_WT>  (1246) 
131.175

>  <LOGP>  (1246) 
0.44439999999999985

>  <TPSA>  (1246) 
63.32000000000001

>  <POPULARITY>  (1246) 
12.4

>  <PROTECTED>  (1246) 
FALSE

>  <SMILES>  (1246) 
N[C@@H](C(C)CC)C(=O)O

>  <INCHIKEY>  (1246) 
AGPKZVBTJJNPAG-AKGZTFGVSA-N

$$$$
xiHyl
     RDKit          2D

 11 10  0  0  0  0  0  0  0  0999 V2000
    1.7502   -1.9632    0.0000 N   0  0  0  0  0  0  0  0  0  0  0  0
    1.6777   -0.4649    0.0000 C   0  0  0  0  0  0  0  0  0  0  0  0
    0.3440    0.2214    0.0000 C   0  0  0  0  0  0  0  0  0  0  0  0
   -0.9173   -0.5905    0.0000 C   0  0  0  0  0  0  0  0  0  0  0  0
   -2.2511    0.0959    0.0000 C   0  0  0  0  0  0  0  0  0  0  0  0
   -2.3235    1.5941    0.0000 O   0  0  0  0  0  0  0  0  0  0  0  0
   -3.5123   -0.7160    0.0000 C   0  0  0  0  0  0  0  0  0  0  0  0
   -4.8461   -0.0297    0.0000 N   0  0  0  0  0  0  0  0  0  0  0  0
    2.9390    0.3470    0.0000 C   0  0  0  0  0  0  0  0  0  0  0  0
    2.8665    1.8452    0.0000 O   0  0  0  0  0  0  0  0  0  0  0  0
    4.2728   -0.3394    0.0000 O   0  0  0  0  0  0  0  0  0  0  0  0
  2  1  1  1
  2  3  1  0
  3  4  1  0
  4  5  1  0
  5  6  1  0
  5  7  1  0
  7  8  1  0
  2  9  1  0
  9 10  2  0
  9 11  1  0
M  END
>  <rName>  (1247) 
xiHyl

>  <PQ_SYMBOL>  (1247) 
xiHyl

>  <FULL_NAME>  (1247) 
(2S)-2,6-diamino-5-hydroxyhexanoic acid

>  <IUPAC_CONDENSED>  (1247) 
xiHyl

>  <IUPAC>  (1247) 
(2S)-2,6-diamino-5-hydroxyhexanoic acid

>  <TYPE>  (1247) 
Backbone

>  <CLASS>  (1247) 
alpha

>  <ANALOG>  (1247) 
Lys

>  <MOL_WT>  (1247) 
162.189

>  <LOGP>  (1247) 
-1.5018999999999991

>  <TPSA>  (1247) 
109.57000000000001

>  <POPULARITY>  (1247) 
3.9

>  <PROTECTED>  (1247) 
FALSE

>  <SMILES>  (1247) 
N[C@@H](CCC(O)CN)C(=O)O

>  <INCHIKEY>  (1247) 
YSMODUONRAFBET-AKGZTFGVSA-N

$$$$
D-Met_SO
     RDKit          2D

 10  9  0  0  0  0  0  0  0  0999 V2000
   -1.2717    1.9622    0.0000 N   0  0  0  0  0  0  0  0  0  0  0  0
   -1.1946    0.4642    0.0000 C   0  0  0  0  0  0  0  0  0  0  0  0
    0.1413   -0.2180    0.0000 C   0  0  0  0  0  0  0  0  0  0  0  0
    1.4001    0.5978    0.0000 C   0  0  0  0  0  0  0  0  0  0  0  0
    2.7359   -0.0845    0.0000 S   0  0  0  0  0  4  0  0  0  0  0  0
    2.8131   -1.5825    0.0000 O   0  0  0  0  0  0  0  0  0  0  0  0
    3.9947    0.7313    0.0000 C   0  0  0  0  0  0  0  0  0  0  0  0
   -2.4533   -0.3516    0.0000 C   0  0  0  0  0  0  0  0  0  0  0  0
   -2.3762   -1.8496    0.0000 O   0  0  0  0  0  0  0  0  0  0  0  0
   -3.7892    0.3306    0.0000 O   0  0  0  0  0  0  0  0  0  0  0  0
  2  1  1  6
  2  3  1  0
  3  4  1  0
  4  5  1  0
  5  6  2  0
  5  7  1  6
  2  8  1  0
  8  9  2  0
  8 10  1  0
M  END
>  <rName>  (1248) 
D-Met_SO

>  <PQ_SYMBOL>  (1248) 
D-Met_SO

>  <FULL_NAME>  (1248) 
(2R)-2-amino-4-[(S)-methanesulfinyl]butanoic acid

>  <IUPAC_CONDENSED>  (1248) 
D-Met(S-O)

>  <IUPAC>  (1248) 
(2R)-2-amino-4-((S)-methylsulfinyl)butanoic acid

>  <TYPE>  (1248) 
Backbone

>  <CLASS>  (1248) 
alpha

>  <ANALOG>  (1248) 
Met

>  <MOL_WT>  (1248) 
165.214

>  <LOGP>  (1248) 
-0.8331000000000004

>  <TPSA>  (1248) 
80.39

>  <POPULARITY>  (1248) 
2.1

>  <PROTECTED>  (1248) 
FALSE

>  <SMILES>  (1248) 
N[C@H](CC[S@@](=O)C)C(=O)O

>  <INCHIKEY>  (1248) 
QEFRNWWLZKMPFJ-KNODYTOMSA-N

$$$$
Pro_3OH_4Me
     RDKit          2D

 10 10  0  0  0  0  0  0  0  0999 V2000
   -0.0611   -1.7001    0.0000 N   0  0  0  0  0  0  0  0  0  0  0  0
    0.5185   -0.3166    0.0000 C   0  0  0  0  0  0  0  0  0  0  0  0
   -0.6182    0.6621    0.0000 C   0  0  0  0  0  0  0  0  0  0  0  0
   -0.4944    2.1570    0.0000 O   0  0  0  0  0  0  0  0  0  0  0  0
   -1.9003   -0.1164    0.0000 C   0  0  0  0  0  0  0  0  0  0  0  0
   -3.2838    0.4632    0.0000 C   0  0  0  0  0  0  0  0  0  0  0  0
   -1.5560   -1.5764    0.0000 C   0  0  0  0  0  0  0  0  0  0  0  0
    1.9785    0.0276    0.0000 C   0  0  0  0  0  0  0  0  0  0  0  0
    2.4103    1.4641    0.0000 O   0  0  0  0  0  0  0  0  0  0  0  0
    3.0066   -1.0646    0.0000 O   0  0  0  0  0  0  0  0  0  0  0  0
  1  2  1  0
  2  3  1  0
  3  4  1  0
  3  5  1  0
  5  6  1  0
  5  7  1  0
  2  8  1  1
  8  9  2  0
  8 10  1  0
  7  1  1  0
M  END
>  <rName>  (1249) 
Pro_3OH_4Me

>  <PQ_SYMBOL>  (1249) 
Pro_3OH_4Me

>  <FULL_NAME>  (1249) 
(2S)-3-hydroxy-4-methylpyrrolidine-2-carboxylic acid

>  <IUPAC_CONDENSED>  (1249) 
Pro(3-OH,4-Me)

>  <IUPAC>  (1249) 
(2S)-3-hydroxy-4-methylpyrrolidine-2-carboxylic acid

>  <TYPE>  (1249) 
Backbone

>  <CLASS>  (1249) 
alpha

>  <ANALOG>  (1249) 
Pro

>  <MOL_WT>  (1249) 
145.15800000000002

>  <LOGP>  (1249) 
-0.9602000000000004

>  <TPSA>  (1249) 
69.56

>  <POPULARITY>  (1249) 
5.2

>  <PROTECTED>  (1249) 
FALSE

>  <SMILES>  (1249) 
N1[C@@H](C(O)C(C)C1)C(=O)O

>  <INCHIKEY>  (1249) 
COHFSKKGVFGDFH-QHWRUIEBSA-N

$$$$
xiHyp
     RDKit          2D

  9  9  0  0  0  0  0  0  0  0999 V2000
   -0.1792   -1.4541    0.0000 N   0  0  0  0  0  0  0  0  0  0  0  0
    0.4598   -0.0969    0.0000 C   0  0  0  0  0  0  0  0  0  0  0  0
   -0.6334    0.9301    0.0000 C   0  0  0  0  0  0  0  0  0  0  0  0
   -1.9481    0.2077    0.0000 C   0  0  0  0  0  0  0  0  0  0  0  0
   -3.3052    0.8467    0.0000 O   0  0  0  0  0  0  0  0  0  0  0  0
   -1.6673   -1.2657    0.0000 C   0  0  0  0  0  0  0  0  0  0  0  0
    1.9333    0.1838    0.0000 C   0  0  0  0  0  0  0  0  0  0  0  0
    2.4269    1.6003    0.0000 O   0  0  0  0  0  0  0  0  0  0  0  0
    2.9132   -0.9519    0.0000 O   0  0  0  0  0  0  0  0  0  0  0  0
  1  2  1  0
  2  3  1  0
  3  4  1  0
  4  5  1  0
  4  6  1  0
  2  7  1  1
  7  8  2  0
  7  9  1  0
  6  1  1  0
M  END
>  <rName>  (1250) 
xiHyp

>  <PQ_SYMBOL>  (1250) 
xiHyp

>  <FULL_NAME>  (1250) 
(2S)-4-hydroxypyrrolidine-2-carboxylic acid

>  <IUPAC_CONDENSED>  (1250) 
xiHyp

>  <IUPAC>  (1250) 
(2S)-4-hydroxypyrrolidine-2-carboxylic acid

>  <TYPE>  (1250) 
Backbone

>  <CLASS>  (1250) 
alpha

>  <ANALOG>  (1250) 
Pro

>  <MOL_WT>  (1250) 
131.131

>  <LOGP>  (1250) 
-1.2062000000000004

>  <TPSA>  (1250) 
69.56

>  <POPULARITY>  (1250) 
10.5

>  <PROTECTED>  (1250) 
FALSE

>  <SMILES>  (1250) 
N1[C@@H](CC(O)C1)C(=O)O

>  <INCHIKEY>  (1250) 
PMMYEEVYMWASQN-BKLSDQPFSA-N

$$$$
Lys_CHNH22
     RDKit          2D

 13 12  0  0  0  0  0  0  0  0999 V2000
   -2.9072    1.8790    0.0000 N   0  0  0  0  0  0  0  0  0  0  0  0
   -2.9824    0.3808    0.0000 C   0  0  0  0  0  0  0  0  0  0  0  0
   -1.7226   -0.4334    0.0000 C   0  0  0  0  0  0  0  0  0  0  0  0
   -0.3876    0.2505    0.0000 C   0  0  0  0  0  0  0  0  0  0  0  0
    0.8722   -0.5637    0.0000 C   0  0  0  0  0  0  0  0  0  0  0  0
    2.2072    0.1202    0.0000 C   0  0  0  0  0  0  0  0  0  0  0  0
    3.4670   -0.6940    0.0000 N   0  0  0  0  0  0  0  0  0  0  0  0
    4.8020   -0.0101    0.0000 C   0  0  0  0  0  0  0  0  0  0  0  0
    6.0618   -0.8243    0.0000 N   0  0  0  0  0  0  0  0  0  0  0  0
    4.8772    1.4880    0.0000 N   0  0  0  0  0  0  0  0  0  0  0  0
   -4.3175   -0.3030    0.0000 C   0  0  0  0  0  0  0  0  0  0  0  0
   -4.3927   -1.8012    0.0000 O   0  0  0  0  0  0  0  0  0  0  0  0
   -5.5772    0.5112    0.0000 O   0  0  0  0  0  0  0  0  0  0  0  0
  2  1  1  1
  2  3  1  0
  3  4  1  0
  4  5  1  0
  5  6  1  0
  6  7  1  0
  7  8  1  0
  8  9  1  0
  8 10  1  0
  2 11  1  0
 11 12  2  0
 11 13  1  0
M  END
>  <rName>  (1251) 
Lys_CHNH22

>  <PQ_SYMBOL>  (1251) 
Lys_CHNH22

>  <FULL_NAME>  (1251) 
(2S)-2-amino-6-[(diaminomethyl)amino]hexanoic acid

>  <IUPAC_CONDENSED>  (1251) 
Lys(CH(NH2)2)

>  <IUPAC>  (1251) 
(2S)-2-amino-6-((diaminomethyl)amino)hexanoic acid

>  <TYPE>  (1251) 
Backbone

>  <CLASS>  (1251) 
alpha

>  <ANALOG>  (1251) 
Lys

>  <MOL_WT>  (1251) 
190.24699999999999

>  <LOGP>  (1251) 
-1.6407999999999978

>  <TPSA>  (1251) 
127.39

>  <POPULARITY>  (1251) 
1.1

>  <PROTECTED>  (1251) 
FALSE

>  <SMILES>  (1251) 
N[C@@H](CCCCNC(N)N)C(=O)O

>  <INCHIKEY>  (1251) 
MULPXBOWFUORJJ-YFKPBYRVSA-N

$$$$
xiThr
     RDKit          2D

  8  7  0  0  0  0  0  0  0  0999 V2000
    0.0000   -2.0625    0.0000 N   0  0  0  0  0  0  0  0  0  0  0  0
    0.0000   -0.5625    0.0000 C   0  0  0  0  0  0  0  0  0  0  0  0
   -1.2990    0.1875    0.0000 C   0  0  0  0  0  0  0  0  0  0  0  0
   -1.2990    1.6875    0.0000 O   0  0  0  0  0  0  0  0  0  0  0  0
   -2.5981   -0.5625    0.0000 C   0  0  0  0  0  0  0  0  0  0  0  0
    1.2990    0.1875    0.0000 C   0  0  0  0  0  0  0  0  0  0  0  0
    1.2990    1.6875    0.0000 O   0  0  0  0  0  0  0  0  0  0  0  0
    2.5981   -0.5625    0.0000 O   0  0  0  0  0  0  0  0  0  0  0  0
  2  1  1  1
  2  3  1  0
  3  4  1  0
  3  5  1  0
  2  6  1  0
  6  7  2  0
  6  8  1  0
M  END
>  <rName>  (1252) 
xiThr

>  <PQ_SYMBOL>  (1252) 
xiThr

>  <FULL_NAME>  (1252) 
(2S)-2-amino-3-hydroxybutanoic acid

>  <IUPAC_CONDENSED>  (1252) 
xiThr

>  <IUPAC>  (1252) 
(2S)-2-amino-3-hydroxybutanoic acid

>  <TYPE>  (1252) 
Backbone

>  <CLASS>  (1252) 
alpha

>  <ANALOG>  (1252) 
Thr

>  <MOL_WT>  (1252) 
119.11999999999999

>  <LOGP>  (1252) 
-1.2209

>  <TPSA>  (1252) 
83.55

>  <POPULARITY>  (1252) 
11.2

>  <PROTECTED>  (1252) 
FALSE

>  <SMILES>  (1252) 
N[C@@H](C(O)C)C(=O)O

>  <INCHIKEY>  (1252) 
AYFVYJQAPQTCCC-NFJMKROFSA-N

$$$$
D-Trp_For
     RDKit          2D

 17 18  0  0  0  0  0  0  0  0999 V2000
   -2.6158   -1.6017    0.0000 N   0  0  0  0  0  0  0  0  0  0  0  0
   -2.7728   -0.1099    0.0000 C   0  0  0  0  0  0  0  0  0  0  0  0
   -1.5594    0.7719    0.0000 C   0  0  0  0  0  0  0  0  0  0  0  0
   -0.1890    0.1620    0.0000 C   0  0  0  0  0  0  0  0  0  0  0  0
    0.1231   -1.3052    0.0000 C   0  0  0  0  0  0  0  0  0  0  0  0
    1.6149   -1.4618    0.0000 N   0  0  0  0  0  0  0  0  0  0  0  0
    2.3650   -2.7607    0.0000 C   0  0  0  0  0  0  0  0  0  0  0  0
    1.6152   -4.0599    0.0000 O   0  0  0  0  0  0  0  0  0  0  0  0
    2.2248   -0.0914    0.0000 C   0  0  0  0  0  0  0  0  0  0  0  0
    3.6513    0.3723    0.0000 C   0  0  0  0  0  0  0  0  0  0  0  0
    3.9630    1.8396    0.0000 C   0  0  0  0  0  0  0  0  0  0  0  0
    2.8481    2.8431    0.0000 C   0  0  0  0  0  0  0  0  0  0  0  0
    1.4216    2.3794    0.0000 C   0  0  0  0  0  0  0  0  0  0  0  0
    1.1099    0.9122    0.0000 C   0  0  0  0  0  0  0  0  0  0  0  0
   -4.1432    0.5000    0.0000 C   0  0  0  0  0  0  0  0  0  0  0  0
   -4.3002    1.9918    0.0000 O   0  0  0  0  0  0  0  0  0  0  0  0
   -5.3566   -0.3818    0.0000 O   0  0  0  0  0  0  0  0  0  0  0  0
  2  1  1  1
  2  3  1  0
  3  4  1  0
  4  5  2  0
  5  6  1  0
  6  7  1  0
  7  8  2  0
  6  9  1  0
  9 10  2  0
 10 11  1  0
 11 12  2  0
 12 13  1  0
 13 14  2  0
  2 15  1  0
 15 16  2  0
 15 17  1  0
 14  4  1  0
 14  9  1  0
M  END
>  <rName>  (1253) 
D-Trp_For

>  <PQ_SYMBOL>  (1253) 
D-Trp_For

>  <FULL_NAME>  (1253) 
(2R)-2-amino-3-(1-formyl-1H-indol-3-yl)propanoic acid

>  <IUPAC_CONDENSED>  (1253) 
D-Trp(For)

>  <IUPAC>  (1253) 
(2R)-2-amino-3-(1-(formyl)-1H-indol-3-yl)propanoic acid

>  <TYPE>  (1253) 
Backbone

>  <CLASS>  (1253) 
alpha

>  <ANALOG>  (1253) 
Trp

>  <MOL_WT>  (1253) 
232.239

>  <LOGP>  (1253) 
0.6340000000000001

>  <TPSA>  (1253) 
85.32000000000001

>  <POPULARITY>  (1253) 
5.1

>  <PROTECTED>  (1253) 
FALSE

>  <SMILES>  (1253) 
N[C@H](Cc1(cn(C=O)c2(ccccc12)))C(=O)O

>  <INCHIKEY>  (1253) 
KRUDZOGZZBVSHD-SNVBAGLBSA-N

$$$$
aBnGaba_3ROH
     RDKit          2D

 15 15  0  0  0  0  0  0  0  0999 V2000
   -0.0890    1.6069    0.0000 N   0  0  0  0  0  0  0  0  0  0  0  0
   -0.4121    0.1421    0.0000 C   0  0  0  0  0  0  0  0  0  0  0  0
    0.6950   -0.8701    0.0000 C   0  0  0  0  0  0  0  0  0  0  0  0
    2.1250   -0.4174    0.0000 C   0  0  0  0  0  0  0  0  0  0  0  0
    2.4481    1.0474    0.0000 C   0  0  0  0  0  0  0  0  0  0  0  0
    3.8781    1.5000    0.0000 C   0  0  0  0  0  0  0  0  0  0  0  0
    4.9852    0.4879    0.0000 C   0  0  0  0  0  0  0  0  0  0  0  0
    4.6621   -0.9769    0.0000 C   0  0  0  0  0  0  0  0  0  0  0  0
    3.2321   -1.4296    0.0000 C   0  0  0  0  0  0  0  0  0  0  0  0
   -1.8422   -0.3106    0.0000 C   0  0  0  0  0  0  0  0  0  0  0  0
   -2.1652   -1.7754    0.0000 O   0  0  0  0  0  0  0  0  0  0  0  0
   -2.9492    0.7016    0.0000 C   0  0  0  0  0  0  0  0  0  0  0  0
   -4.3793    0.2489    0.0000 C   0  0  0  0  0  0  0  0  0  0  0  0
   -4.7023   -1.2159    0.0000 O   0  0  0  0  0  0  0  0  0  0  0  0
   -5.4863    1.2611    0.0000 O   0  0  0  0  0  0  0  0  0  0  0  0
  2  1  1  1
  2  3  1  0
  3  4  1  0
  4  5  2  0
  5  6  1  0
  6  7  2  0
  7  8  1  0
  8  9  2  0
  2 10  1  0
 10 11  1  6
 10 12  1  0
 12 13  1  0
 13 14  2  0
 13 15  1  0
  9  4  1  0
M  END
>  <rName>  (1254) 
aBnGaba_3ROH

>  <PQ_SYMBOL>  (1254) 
aBnGaba_3ROH

>  <FULL_NAME>  (1254) 
gamma-amino-beta-hydroxybenzenepentanoic acid

>  <IUPAC_CONDENSED>  (1254) 
aBnGaba(3R-OH)

>  <IUPAC>  (1254) 
(3R,4S)-4-amino-3-hydroxy-5-phenylpentanoic acid

>  <TYPE>  (1254) 
Backbone

>  <CLASS>  (1254) 
gamma

>  <ANALOG>  (1254) 
Phe

>  <MOL_WT>  (1254) 
209.24499999999995

>  <LOGP>  (1254) 
0.3920000000000001

>  <TPSA>  (1254) 
83.55

>  <POPULARITY>  (1254) 
4.2

>  <PROTECTED>  (1254) 
FALSE

>  <SMILES>  (1254) 
N[C@@H](Cc1(ccccc1))[C@H](O)CC(=O)O

>  <INCHIKEY>  (1254) 
JAJQQUQHMLWDFB-VHSXEESVSA-N

$$$$
Bmt
     RDKit          2D

 13 12  0  0  0  0  0  0  0  0999 V2000
   -0.7504   -0.9424    0.0000 N   0  0  0  0  0  0  0  0  0  0  0  0
    0.6917   -0.5296    0.0000 C   0  0  0  0  0  0  0  0  0  0  0  0
    1.0552    0.9257    0.0000 C   0  0  0  0  0  0  0  0  0  0  0  0
    2.4973    1.3384    0.0000 O   0  0  0  0  0  0  0  0  0  0  0  0
   -0.0233    1.9682    0.0000 C   0  0  0  0  0  0  0  0  0  0  0  0
    0.3403    3.4234    0.0000 C   0  0  0  0  0  0  0  0  0  0  0  0
   -1.4654    1.5554    0.0000 C   0  0  0  0  0  0  0  0  0  0  0  0
   -1.8289    0.1001    0.0000 C   0  0  0  0  0  0  0  0  0  0  0  0
   -3.2710   -0.3126    0.0000 C   0  0  0  0  0  0  0  0  0  0  0  0
   -3.6346   -1.7679    0.0000 C   0  0  0  0  0  0  0  0  0  0  0  0
    1.7702   -1.5721    0.0000 C   0  0  0  0  0  0  0  0  0  0  0  0
    3.2123   -1.1593    0.0000 O   0  0  0  0  0  0  0  0  0  0  0  0
    1.4066   -3.0274    0.0000 O   0  0  0  0  0  0  0  0  0  0  0  0
  2  1  1  1
  2  3  1  0
  3  4  1  1
  3  5  1  0
  5  6  1  1
  5  7  1  0
  7  8  1  0
  8  9  2  3
  9 10  1  0
  2 11  1  0
 11 12  2  0
 11 13  1  0
M  END
>  <rName>  (1255) 
Bmt

>  <PQ_SYMBOL>  (1255) 
Bmt

>  <FULL_NAME>  (1255) 
(2S,3R,4R)-2-amino-3-hydroxy-4-methyloct-6-enoic acid

>  <IUPAC_CONDENSED>  (1255) 
Bmt

>  <IUPAC>  (1255) 
(2S,3R,4R)-2-amino-3-hydroxy-4-methyloct-6-enoic acid

>  <TYPE>  (1255) 
Backbone

>  <CLASS>  (1255) 
alpha

>  <ANALOG>  (1255) 
Thr

>  <MOL_WT>  (1255) 
187.23899999999998

>  <LOGP>  (1255) 
0.36149999999999965

>  <TPSA>  (1255) 
83.55

>  <POPULARITY>  (1255) 
2

>  <PROTECTED>  (1255) 
FALSE

>  <SMILES>  (1255) 
N[C@@H]([C@H](O)[C@H](C)CC=CC)C(=O)O

>  <INCHIKEY>  (1255) 
RPALEGQGCGCFCX-GJMOJQLCSA-N

$$$$
Bmt_E
     RDKit          2D

 13 12  0  0  0  0  0  0  0  0999 V2000
    2.2660    1.8292    0.0000 N   0  0  0  0  0  0  0  0  0  0  0  0
    1.8676    0.3831    0.0000 C   0  0  0  0  0  0  0  0  0  0  0  0
    0.4160    0.0051    0.0000 C   0  0  0  0  0  0  0  0  0  0  0  0
    0.0176   -1.4410    0.0000 O   0  0  0  0  0  0  0  0  0  0  0  0
   -0.6372    1.0732    0.0000 C   0  0  0  0  0  0  0  0  0  0  0  0
   -0.2388    2.5193    0.0000 C   0  0  0  0  0  0  0  0  0  0  0  0
   -2.0888    0.6952    0.0000 C   0  0  0  0  0  0  0  0  0  0  0  0
   -2.4872   -0.7510    0.0000 C   0  0  0  0  0  0  0  0  0  0  0  0
   -3.9388   -1.1290    0.0000 C   0  0  0  0  0  0  0  0  0  0  0  0
   -4.9919   -0.0609    0.0000 C   0  0  0  0  0  0  0  0  0  0  0  0
    2.9207   -0.6850    0.0000 C   0  0  0  0  0  0  0  0  0  0  0  0
    2.5223   -2.1311    0.0000 O   0  0  0  0  0  0  0  0  0  0  0  0
    4.3723   -0.3070    0.0000 O   0  0  0  0  0  0  0  0  0  0  0  0
  2  1  1  6
  2  3  1  0
  3  4  1  6
  3  5  1  0
  5  6  1  1
  5  7  1  0
  7  8  1  0
  8  9  2  0
  9 10  1  0
  2 11  1  0
 11 12  2  0
 11 13  1  0
M  END
>  <rName>  (1256) 
Bmt_E

>  <PQ_SYMBOL>  (1256) 
Bmt_E

>  <FULL_NAME>  (1256) 
(2S,3R,4R,6E)-2-amino-3-hydroxy-4-methyloct-6-enoic acid

>  <IUPAC_CONDENSED>  (1256) 
Bmt(E)

>  <IUPAC>  (1256) 
(2S,3R,4R,6Z)-2-amino-3-hydroxy-4-methyloct-6-enoic acid

>  <TYPE>  (1256) 
Backbone

>  <CLASS>  (1256) 
alpha

>  <ANALOG>  (1256) 
Thr

>  <MOL_WT>  (1256) 
187.23899999999998

>  <LOGP>  (1256) 
0.36149999999999965

>  <TPSA>  (1256) 
83.55

>  <POPULARITY>  (1256) 
1.3

>  <PROTECTED>  (1256) 
FALSE

>  <SMILES>  (1256) 
N[C@@H]([C@H](O)[C@H](C)C/C=C\C)C(=O)O

>  <INCHIKEY>  (1256) 
RPALEGQGCGCFCX-IFEQSGIMSA-N

$$$$
Gaba_3SOH
     RDKit          2D

  8  7  0  0  0  0  0  0  0  0999 V2000
   -3.4109   -0.0483    0.0000 N   0  0  0  0  0  0  0  0  0  0  0  0
   -2.1220   -0.8156    0.0000 C   0  0  0  0  0  0  0  0  0  0  0  0
   -0.8131   -0.0829    0.0000 C   0  0  0  0  0  0  0  0  0  0  0  0
   -0.7931    1.4169    0.0000 O   0  0  0  0  0  0  0  0  0  0  0  0
    0.4759   -0.8502    0.0000 C   0  0  0  0  0  0  0  0  0  0  0  0
    1.7848   -0.1175    0.0000 C   0  0  0  0  0  0  0  0  0  0  0  0
    1.8048    1.3823    0.0000 O   0  0  0  0  0  0  0  0  0  0  0  0
    3.0737   -0.8848    0.0000 O   0  0  0  0  0  0  0  0  0  0  0  0
  1  2  1  0
  2  3  1  0
  3  4  1  1
  3  5  1  0
  5  6  1  0
  6  7  2  0
  6  8  1  0
M  END
>  <rName>  (1257) 
Gaba_3SOH

>  <PQ_SYMBOL>  (1257) 
Gaba_3SOH

>  <FULL_NAME>  (1257) 
(3S)-4-amino-3-hydroxybutanoic acid

>  <IUPAC_CONDENSED>  (1257) 
Gaba(3S-OH)

>  <IUPAC>  (1257) 
(3S)-4-amino-3-hydroxybutanoic acid

>  <TYPE>  (1257) 
Backbone

>  <CLASS>  (1257) 
gamma

>  <ANALOG>  (1257) 
X

>  <MOL_WT>  (1257) 
119.11999999999999

>  <LOGP>  (1257) 
-1.2192999999999998

>  <TPSA>  (1257) 
83.55

>  <POPULARITY>  (1257) 
11.5

>  <PROTECTED>  (1257) 
TRUE

>  <SMILES>  (1257) 
NC[C@@H](O)CC(=O)O

>  <INCHIKEY>  (1257) 
YQGDEPYYFWUPGO-VKHMYHEASA-N

$$$$
bAla_3SMe_bCH2cHex_2ROH
     RDKit          2D

 15 15  0  0  0  0  0  0  0  0999 V2000
   -1.9328   -1.8800    0.0000 N   0  0  0  0  0  0  0  0  0  0  0  0
   -1.6601   -0.4050    0.0000 C   0  0  0  0  0  0  0  0  0  0  0  0
   -0.2464    0.0964    0.0000 C   0  0  0  0  0  0  0  0  0  0  0  0
    0.8947   -0.8772    0.0000 C   0  0  0  0  0  0  0  0  0  0  0  0
    2.3084   -0.3758    0.0000 C   0  0  0  0  0  0  0  0  0  0  0  0
    2.5811    1.0992    0.0000 C   0  0  0  0  0  0  0  0  0  0  0  0
    3.9948    1.6006    0.0000 C   0  0  0  0  0  0  0  0  0  0  0  0
    5.1359    0.6269    0.0000 C   0  0  0  0  0  0  0  0  0  0  0  0
    4.8632   -0.8481    0.0000 C   0  0  0  0  0  0  0  0  0  0  0  0
    3.4495   -1.3495    0.0000 C   0  0  0  0  0  0  0  0  0  0  0  0
   -2.8012    0.5686    0.0000 C   0  0  0  0  0  0  0  0  0  0  0  0
   -2.5285    2.0436    0.0000 O   0  0  0  0  0  0  0  0  0  0  0  0
   -4.2149    0.0672    0.0000 C   0  0  0  0  0  0  0  0  0  0  0  0
   -4.4876   -1.4078    0.0000 O   0  0  0  0  0  0  0  0  0  0  0  0
   -5.3560    1.0409    0.0000 O   0  0  0  0  0  0  0  0  0  0  0  0
  2  1  1  6
  2  3  1  0
  3  4  1  0
  4  5  1  0
  5  6  1  0
  6  7  1  0
  7  8  1  0
  8  9  1  0
  9 10  1  0
  2 11  1  0
 11 12  1  6
 11 13  1  0
 13 14  2  0
 13 15  1  0
 10  5  1  0
M  END
>  <rName>  (1258) 
bAla_3SMe_bCH2cHex_2ROH

>  <PQ_SYMBOL>  (1258) 
bAla_3SMe_bCH2cHex_2ROH

>  <FULL_NAME>  (1258) 
(2R,3S)-3-amino-5-cyclohexyl-2-hydroxypentanoic acid

>  <IUPAC_CONDENSED>  (1258) 
bAla(3S-Me,b-CH2cHex,2R-OH)

>  <IUPAC>  (1258) 
(2R,3S)-3-amino-5-cyclohexyl-2-hydroxypentanoic acid

>  <TYPE>  (1258) 
Backbone

>  <CLASS>  (1258) 
beta

>  <ANALOG>  (1258) 
Ala

>  <MOL_WT>  (1258) 
215.293

>  <LOGP>  (1258) 
1.1196999999999997

>  <TPSA>  (1258) 
83.55

>  <POPULARITY>  (1258) 
1.7

>  <PROTECTED>  (1258) 
FALSE

>  <SMILES>  (1258) 
N[C@@H](CCC1(CCCCC1))[C@@H](O)C(=O)O

>  <INCHIKEY>  (1258) 
GLZAAGIGXRDUJQ-VHSXEESVSA-N

$$$$
D-Bmt
     RDKit          2D

 13 12  0  0  0  0  0  0  0  0999 V2000
   -0.7504   -0.9424    0.0000 N   0  0  0  0  0  0  0  0  0  0  0  0
    0.6917   -0.5296    0.0000 C   0  0  0  0  0  0  0  0  0  0  0  0
    1.0552    0.9257    0.0000 C   0  0  0  0  0  0  0  0  0  0  0  0
    2.4973    1.3384    0.0000 O   0  0  0  0  0  0  0  0  0  0  0  0
   -0.0233    1.9682    0.0000 C   0  0  0  0  0  0  0  0  0  0  0  0
    0.3403    3.4234    0.0000 C   0  0  0  0  0  0  0  0  0  0  0  0
   -1.4654    1.5554    0.0000 C   0  0  0  0  0  0  0  0  0  0  0  0
   -1.8289    0.1001    0.0000 C   0  0  0  0  0  0  0  0  0  0  0  0
   -3.2710   -0.3126    0.0000 C   0  0  0  0  0  0  0  0  0  0  0  0
   -3.6346   -1.7679    0.0000 C   0  0  0  0  0  0  0  0  0  0  0  0
    1.7702   -1.5721    0.0000 C   0  0  0  0  0  0  0  0  0  0  0  0
    3.2123   -1.1593    0.0000 O   0  0  0  0  0  0  0  0  0  0  0  0
    1.4066   -3.0274    0.0000 O   0  0  0  0  0  0  0  0  0  0  0  0
  2  1  1  6
  2  3  1  0
  3  4  1  6
  3  5  1  0
  5  6  1  6
  5  7  1  0
  7  8  1  0
  8  9  2  3
  9 10  1  0
  2 11  1  0
 11 12  2  0
 11 13  1  0
M  END
>  <rName>  (1259) 
D-Bmt

>  <PQ_SYMBOL>  (1259) 
D-Bmt

>  <FULL_NAME>  (1259) 
(2R,3S,4S)-2-amino-3-hydroxy-4-methyloct-6-enoic acid

>  <IUPAC_CONDENSED>  (1259) 
D-Bmt

>  <IUPAC>  (1259) 
(2R,3S,4S)-2-amino-3-hydroxy-4-methyloct-6-enoic acid

>  <TYPE>  (1259) 
Backbone

>  <CLASS>  (1259) 
alpha

>  <ANALOG>  (1259) 
Thr

>  <MOL_WT>  (1259) 
187.23899999999998

>  <LOGP>  (1259) 
0.36149999999999965

>  <TPSA>  (1259) 
83.55

>  <POPULARITY>  (1259) 
2

>  <PROTECTED>  (1259) 
FALSE

>  <SMILES>  (1259) 
N[C@H]([C@@H](O)[C@@H](C)CC=CC)C(=O)O

>  <INCHIKEY>  (1259) 
RPALEGQGCGCFCX-RNJXMRFFSA-N

$$$$
D-Bmt_E
     RDKit          2D

 13 12  0  0  0  0  0  0  0  0999 V2000
    2.2660    1.8292    0.0000 N   0  0  0  0  0  0  0  0  0  0  0  0
    1.8676    0.3831    0.0000 C   0  0  0  0  0  0  0  0  0  0  0  0
    0.4160    0.0051    0.0000 C   0  0  0  0  0  0  0  0  0  0  0  0
    0.0176   -1.4410    0.0000 O   0  0  0  0  0  0  0  0  0  0  0  0
   -0.6372    1.0732    0.0000 C   0  0  0  0  0  0  0  0  0  0  0  0
   -0.2388    2.5193    0.0000 C   0  0  0  0  0  0  0  0  0  0  0  0
   -2.0888    0.6952    0.0000 C   0  0  0  0  0  0  0  0  0  0  0  0
   -2.4872   -0.7510    0.0000 C   0  0  0  0  0  0  0  0  0  0  0  0
   -3.9388   -1.1290    0.0000 C   0  0  0  0  0  0  0  0  0  0  0  0
   -4.9919   -0.0609    0.0000 C   0  0  0  0  0  0  0  0  0  0  0  0
    2.9207   -0.6850    0.0000 C   0  0  0  0  0  0  0  0  0  0  0  0
    2.5223   -2.1311    0.0000 O   0  0  0  0  0  0  0  0  0  0  0  0
    4.3723   -0.3070    0.0000 O   0  0  0  0  0  0  0  0  0  0  0  0
  2  1  1  1
  2  3  1  0
  3  4  1  1
  3  5  1  0
  5  6  1  6
  5  7  1  0
  7  8  1  0
  8  9  2  0
  9 10  1  0
  2 11  1  0
 11 12  2  0
 11 13  1  0
M  END
>  <rName>  (1260) 
D-Bmt_E

>  <PQ_SYMBOL>  (1260) 
D-Bmt_E

>  <FULL_NAME>  (1260) 
(2R,3S,4S,6E)-2-amino-3-hydroxy-4-methyloct-6-enoic acid

>  <IUPAC_CONDENSED>  (1260) 
D-Bmt(E)

>  <IUPAC>  (1260) 
(2R,3S,4S,6Z)-2-amino-3-hydroxy-4-methyloct-6-enoic acid

>  <TYPE>  (1260) 
Backbone

>  <CLASS>  (1260) 
alpha

>  <ANALOG>  (1260) 
Thr

>  <MOL_WT>  (1260) 
187.23899999999998

>  <LOGP>  (1260) 
0.36149999999999965

>  <TPSA>  (1260) 
83.55

>  <POPULARITY>  (1260) 
1.3

>  <PROTECTED>  (1260) 
FALSE

>  <SMILES>  (1260) 
N[C@H]([C@@H](O)[C@@H](C)C/C=C\C)C(=O)O

>  <INCHIKEY>  (1260) 
RPALEGQGCGCFCX-YTUSVYGESA-N

$$$$
aNH2Apm
     RDKit          2D

 13 12  0  0  0  0  0  0  0  0999 V2000
    2.7138    1.6520    0.0000 N   0  0  0  0  0  0  0  0  0  0  0  0
    2.1874    0.2474    0.0000 C   0  0  0  0  0  0  0  0  0  0  0  0
    1.6611   -1.1572    0.0000 N   0  0  0  0  0  0  0  0  0  0  0  0
    0.7828    0.7738    0.0000 C   0  0  0  0  0  0  0  0  0  0  0  0
   -0.3753   -0.1795    0.0000 C   0  0  0  0  0  0  0  0  0  0  0  0
   -1.7799    0.3469    0.0000 C   0  0  0  0  0  0  0  0  0  0  0  0
   -2.9381   -0.6064    0.0000 C   0  0  0  0  0  0  0  0  0  0  0  0
   -4.3427   -0.0801    0.0000 C   0  0  0  0  0  0  0  0  0  0  0  0
   -4.5892    1.3995    0.0000 O   0  0  0  0  0  0  0  0  0  0  0  0
   -5.5008   -1.0333    0.0000 O   0  0  0  0  0  0  0  0  0  0  0  0
    3.5921   -0.2789    0.0000 C   0  0  0  0  0  0  0  0  0  0  0  0
    4.7502    0.6743    0.0000 O   0  0  0  0  0  0  0  0  0  0  0  0
    3.8386   -1.7585    0.0000 O   0  0  0  0  0  0  0  0  0  0  0  0
  1  2  1  0
  2  3  1  0
  2  4  1  0
  4  5  1  0
  5  6  1  0
  6  7  1  0
  7  8  1  0
  8  9  2  0
  8 10  1  0
  2 11  1  0
 11 12  2  0
 11 13  1  0
M  END
>  <rName>  (1261) 
aNH2Apm

>  <PQ_SYMBOL>  (1261) 
aNH2Apm

>  <FULL_NAME>  (1261) 
L-Diaminopimelic acid

>  <IUPAC_CONDENSED>  (1261) 
aNH2Apm

>  <IUPAC>  (1261) 
2,2-diaminoheptanedioic acid

>  <TYPE>  (1261) 
Backbone

>  <CLASS>  (1261) 
alpha

>  <ANALOG>  (1261) 
X

>  <MOL_WT>  (1261) 
190.199

>  <LOGP>  (1261) 
-0.6703000000000006

>  <TPSA>  (1261) 
126.64

>  <POPULARITY>  (1261) 
1.1

>  <PROTECTED>  (1261) 
FALSE

>  <SMILES>  (1261) 
NC(N)(CCCCC(=O)O)C(=O)O

>  <INCHIKEY>  (1261) 
HAWJUUUDZFZUKG-UHFFFAOYSA-N

$$$$
NMe-2Abz
     RDKit          2D

 11 11  0  0  0  0  0  0  0  0999 V2000
    0.0316   -2.0361    0.0000 N   0  0  0  0  0  0  0  0  0  0  0  0
    1.0063   -3.1763    0.0000 C   0  0  0  0  0  0  0  0  0  0  0  0
    0.5316   -0.6219    0.0000 C   0  0  0  0  0  0  0  0  0  0  0  0
   -0.4430    0.5183    0.0000 C   0  0  0  0  0  0  0  0  0  0  0  0
    0.0570    1.9324    0.0000 C   0  0  0  0  0  0  0  0  0  0  0  0
    1.5318    2.2065    0.0000 C   0  0  0  0  0  0  0  0  0  0  0  0
    2.5065    1.0663    0.0000 C   0  0  0  0  0  0  0  0  0  0  0  0
    2.0064   -0.3479    0.0000 C   0  0  0  0  0  0  0  0  0  0  0  0
   -1.9178    0.2442    0.0000 C   0  0  0  0  0  0  0  0  0  0  0  0
   -2.4179   -1.1699    0.0000 O   0  0  0  0  0  0  0  0  0  0  0  0
   -2.8925    1.3844    0.0000 O   0  0  0  0  0  0  0  0  0  0  0  0
  1  2  1  0
  1  3  1  0
  3  4  1  0
  4  5  2  0
  5  6  1  0
  6  7  2  0
  7  8  1  0
  4  9  1  0
  9 10  2  0
  9 11  1  0
  8  3  2  0
M  END
>  <rName>  (1262) 
NMe-2Abz

>  <PQ_SYMBOL>  (1262) 
NMe-2Abz

>  <FULL_NAME>  (1262) 
2-(methylamino)benzoic acid

>  <IUPAC_CONDENSED>  (1262) 
Me-2Abz

>  <IUPAC>  (1262) 
2-(methylamino)benzoic acid

>  <TYPE>  (1262) 
Backbone

>  <CLASS>  (1262) 
unknown

>  <ANALOG>  (1262) 
X

>  <MOL_WT>  (1262) 
151.16499999999996

>  <LOGP>  (1262) 
1.4264999999999999

>  <TPSA>  (1262) 
49.33

>  <POPULARITY>  (1262) 
13.6

>  <PROTECTED>  (1262) 
FALSE

>  <SMILES>  (1262) 
N(C)c1c(cccc1)C(=O)O

>  <INCHIKEY>  (1262) 
WVMBPWMAQDVZCM-UHFFFAOYSA-N

$$$$
NMe-4Abz
     RDKit          2D

 11 11  0  0  0  0  0  0  0  0999 V2000
   -3.3137   -0.4417    0.0000 N   0  0  0  0  0  0  0  0  0  0  0  0
   -4.1862    0.7785    0.0000 C   0  0  0  0  0  0  0  0  0  0  0  0
   -1.8208   -0.2961    0.0000 C   0  0  0  0  0  0  0  0  0  0  0  0
   -1.2003    1.0695    0.0000 C   0  0  0  0  0  0  0  0  0  0  0  0
    0.2926    1.2151    0.0000 C   0  0  0  0  0  0  0  0  0  0  0  0
    1.1651   -0.0051    0.0000 C   0  0  0  0  0  0  0  0  0  0  0  0
    0.5446   -1.3708    0.0000 C   0  0  0  0  0  0  0  0  0  0  0  0
   -0.9483   -1.5163    0.0000 C   0  0  0  0  0  0  0  0  0  0  0  0
    2.6580    0.1404    0.0000 C   0  0  0  0  0  0  0  0  0  0  0  0
    3.2784    1.5061    0.0000 O   0  0  0  0  0  0  0  0  0  0  0  0
    3.5305   -1.0797    0.0000 O   0  0  0  0  0  0  0  0  0  0  0  0
  1  2  1  0
  1  3  1  0
  3  4  1  0
  4  5  2  0
  5  6  1  0
  6  7  2  0
  7  8  1  0
  6  9  1  0
  9 10  2  0
  9 11  1  0
  8  3  2  0
M  END
>  <rName>  (1263) 
NMe-4Abz

>  <PQ_SYMBOL>  (1263) 
NMe-4Abz

>  <FULL_NAME>  (1263) 
4-(methylamino)benzoic acid

>  <IUPAC_CONDENSED>  (1263) 
Me-4Abz

>  <IUPAC>  (1263) 
4-(methylamino)benzoic acid

>  <TYPE>  (1263) 
Backbone

>  <CLASS>  (1263) 
unknown

>  <ANALOG>  (1263) 
X

>  <MOL_WT>  (1263) 
151.165

>  <LOGP>  (1263) 
1.4264999999999999

>  <TPSA>  (1263) 
49.33

>  <POPULARITY>  (1263) 
13.6

>  <PROTECTED>  (1263) 
FALSE

>  <SMILES>  (1263) 
N(C)c1ccc(cc1)C(=O)O

>  <INCHIKEY>  (1263) 
ZVIDMSBTYRSMAR-UHFFFAOYSA-N

$$$$
Acadenin-9-yl-NEtNH2Gly
     RDKit          2D

 21 22  0  0  0  0  0  0  0  0999 V2000
   -6.3235   -1.6707    0.0000 N   0  0  0  0  0  0  0  0  0  0  0  0
   -5.1592   -0.7250    0.0000 C   0  0  0  0  0  0  0  0  0  0  0  0
   -3.7580   -1.2605    0.0000 C   0  0  0  0  0  0  0  0  0  0  0  0
   -2.5937   -0.3148    0.0000 N   0  0  0  0  0  0  0  0  0  0  0  0
   -1.1925   -0.8503    0.0000 C   0  0  0  0  0  0  0  0  0  0  0  0
   -0.9557   -2.3315    0.0000 O   0  0  0  0  0  0  0  0  0  0  0  0
   -0.0282    0.0954    0.0000 C   0  0  0  0  0  0  0  0  0  0  0  0
    1.3730   -0.4401    0.0000 N   0  0  0  0  0  0  0  0  0  0  0  0
    1.7633   -1.8885    0.0000 C   0  0  0  0  0  0  0  0  0  0  0  0
    3.2614   -1.9648    0.0000 N   0  0  0  0  0  0  0  0  0  0  0  0
    3.7969   -0.5636    0.0000 C   0  0  0  0  0  0  0  0  0  0  0  0
    5.1965   -0.0240    0.0000 C   0  0  0  0  0  0  0  0  0  0  0  0
    6.3636   -0.9663    0.0000 N   0  0  0  0  0  0  0  0  0  0  0  0
    5.4289    1.4579    0.0000 N   0  0  0  0  0  0  0  0  0  0  0  0
    4.2618    2.4001    0.0000 C   0  0  0  0  0  0  0  0  0  0  0  0
    2.8623    1.8605    0.0000 N   0  0  0  0  0  0  0  0  0  0  0  0
    2.6298    0.3787    0.0000 C   0  0  0  0  0  0  0  0  0  0  0  0
   -2.8305    1.1664    0.0000 C   0  0  0  0  0  0  0  0  0  0  0  0
   -4.2317    1.7019    0.0000 C   0  0  0  0  0  0  0  0  0  0  0  0
   -5.3960    0.7562    0.0000 O   0  0  0  0  0  0  0  0  0  0  0  0
   -4.4685    3.1831    0.0000 O   0  0  0  0  0  0  0  0  0  0  0  0
  1  2  1  0
  2  3  1  0
  3  4  1  0
  4  5  1  0
  5  6  2  0
  5  7  1  0
  7  8  1  0
  8  9  1  0
  9 10  2  0
 10 11  1  0
 11 12  2  0
 12 13  1  0
 12 14  1  0
 14 15  2  0
 15 16  1  0
 16 17  2  0
  4 18  1  0
 18 19  1  0
 19 20  2  0
 19 21  1  0
 17  8  1  0
 17 11  1  0
M  END
>  <rName>  (1264) 
Acadenin-9-yl-NEtNH2Gly

>  <PQ_SYMBOL>  (1264) 
Acadenin-9-yl-NEtNH2Gly

>  <FULL_NAME>  (1264) 
PNA Adenine

>  <IUPAC_CONDENSED>  (1264) 
Ac(adenin-9-yl)-N(EtNH2)Gly

>  <IUPAC>  (1264) 
2-((2-aminoethyl)((5-amino-2,4,7,9-tetraazabicyclo[4.3.0]nona-1,3,5,7-tetraen-9-yl)acetyl)amino)acetic acid

>  <TYPE>  (1264) 
Backbone

>  <CLASS>  (1264) 
unknown

>  <ANALOG>  (1264) 
Gly

>  <MOL_WT>  (1264) 
293.287

>  <LOGP>  (1264) 
-1.719599999999998

>  <TPSA>  (1264) 
153.25

>  <POPULARITY>  (1264) 
2.2

>  <PROTECTED>  (1264) 
FALSE

>  <SMILES>  (1264) 
NCCN(C(=O)Cn1(cnc2(c(N)ncnc12)))CC(=O)O

>  <INCHIKEY>  (1264) 
DUMWERDMQQCWPO-UHFFFAOYSA-N

$$$$
Accytosin-1-yl-NEtNH2Gly
     RDKit          2D

 19 19  0  0  0  0  0  0  0  0999 V2000
   -5.3884    2.2196    0.0000 N   0  0  0  0  0  0  0  0  0  0  0  0
   -4.3870    1.1029    0.0000 C   0  0  0  0  0  0  0  0  0  0  0  0
   -2.9191    1.4118    0.0000 C   0  0  0  0  0  0  0  0  0  0  0  0
   -1.9177    0.2951    0.0000 N   0  0  0  0  0  0  0  0  0  0  0  0
   -0.4498    0.6040    0.0000 C   0  0  0  0  0  0  0  0  0  0  0  0
    0.0166    2.0297    0.0000 O   0  0  0  0  0  0  0  0  0  0  0  0
    0.5516   -0.5127    0.0000 C   0  0  0  0  0  0  0  0  0  0  0  0
    2.0195   -0.2038    0.0000 N   0  0  0  0  0  0  0  0  0  0  0  0
    2.4859    1.2219    0.0000 C   0  0  0  0  0  0  0  0  0  0  0  0
    3.9537    1.5308    0.0000 C   0  0  0  0  0  0  0  0  0  0  0  0
    4.9552    0.4140    0.0000 C   0  0  0  0  0  0  0  0  0  0  0  0
    6.4230    0.7230    0.0000 N   0  0  0  0  0  0  0  0  0  0  0  0
    4.4888   -1.0116    0.0000 N   0  0  0  0  0  0  0  0  0  0  0  0
    3.0209   -1.3205    0.0000 C   0  0  0  0  0  0  0  0  0  0  0  0
    2.5545   -2.7462    0.0000 O   0  0  0  0  0  0  0  0  0  0  0  0
   -2.3841   -1.1306    0.0000 C   0  0  0  0  0  0  0  0  0  0  0  0
   -3.8519   -1.4395    0.0000 C   0  0  0  0  0  0  0  0  0  0  0  0
   -4.8534   -0.3227    0.0000 O   0  0  0  0  0  0  0  0  0  0  0  0
   -4.3183   -2.8651    0.0000 O   0  0  0  0  0  0  0  0  0  0  0  0
  1  2  1  0
  2  3  1  0
  3  4  1  0
  4  5  1  0
  5  6  2  0
  5  7  1  0
  7  8  1  0
  8  9  1  0
  9 10  2  0
 10 11  1  0
 11 12  1  0
 11 13  2  0
 13 14  1  0
 14 15  2  0
  4 16  1  0
 16 17  1  0
 17 18  2  0
 17 19  1  0
 14  8  1  0
M  END
>  <rName>  (1265) 
Accytosin-1-yl-NEtNH2Gly

>  <PQ_SYMBOL>  (1265) 
Accytosin-1-yl-NEtNH2Gly

>  <FULL_NAME>  (1265) 
PNA Cytosine

>  <IUPAC_CONDENSED>  (1265) 
Ac(cytosin-1-yl)-N(EtNH2)Gly

>  <IUPAC>  (1265) 
2-((2-aminoethyl)((4-amino-2-oxo-1,3-diazacyclohexa-3,5-dien-1-yl)acetyl)amino)acetic acid

>  <TYPE>  (1265) 
Backbone

>  <CLASS>  (1265) 
unknown

>  <ANALOG>  (1265) 
Gly

>  <MOL_WT>  (1265) 
269.26099999999997

>  <LOGP>  (1265) 
-2.3025999999999973

>  <TPSA>  (1265) 
144.54

>  <POPULARITY>  (1265) 
1

>  <PROTECTED>  (1265) 
FALSE

>  <SMILES>  (1265) 
NCCN(C(=O)Cn1(ccc(N)nc1=O))CC(=O)O

>  <INCHIKEY>  (1265) 
MFPUAOSBORLXTD-UHFFFAOYSA-N

$$$$
Acguanin-9-yl-NEtNH2Gly
     RDKit          2D

 22 23  0  0  0  0  0  0  0  0999 V2000
    6.6246    1.4625    0.0000 N   0  0  0  0  0  0  0  0  0  0  0  0
    5.4070    0.5864    0.0000 C   0  0  0  0  0  0  0  0  0  0  0  0
    4.0395    1.2029    0.0000 C   0  0  0  0  0  0  0  0  0  0  0  0
    2.8219    0.3269    0.0000 N   0  0  0  0  0  0  0  0  0  0  0  0
    1.4544    0.9434    0.0000 C   0  0  0  0  0  0  0  0  0  0  0  0
    1.3046    2.4359    0.0000 O   0  0  0  0  0  0  0  0  0  0  0  0
    0.2368    0.0674    0.0000 C   0  0  0  0  0  0  0  0  0  0  0  0
   -1.1306    0.6838    0.0000 N   0  0  0  0  0  0  0  0  0  0  0  0
   -1.4357    2.1525    0.0000 C   0  0  0  0  0  0  0  0  0  0  0  0
   -2.9267    2.3162    0.0000 N   0  0  0  0  0  0  0  0  0  0  0  0
   -3.5432    0.9488    0.0000 C   0  0  0  0  0  0  0  0  0  0  0  0
   -4.9719    0.4919    0.0000 C   0  0  0  0  0  0  0  0  0  0  0  0
   -6.0820    1.5008    0.0000 O   0  0  0  0  0  0  0  0  0  0  0  0
   -5.2906   -0.9739    0.0000 N   0  0  0  0  0  0  0  0  0  0  0  0
   -4.1806   -1.9827    0.0000 C   0  0  0  0  0  0  0  0  0  0  0  0
   -4.4993   -3.4485    0.0000 N   0  0  0  0  0  0  0  0  0  0  0  0
   -2.7519   -1.5259    0.0000 N   0  0  0  0  0  0  0  0  0  0  0  0
   -2.4332   -0.0601    0.0000 C   0  0  0  0  0  0  0  0  0  0  0  0
    2.9717   -1.1656    0.0000 C   0  0  0  0  0  0  0  0  0  0  0  0
    4.3392   -1.7821    0.0000 C   0  0  0  0  0  0  0  0  0  0  0  0
    5.5568   -0.9061    0.0000 O   0  0  0  0  0  0  0  0  0  0  0  0
    4.4890   -3.2746    0.0000 O   0  0  0  0  0  0  0  0  0  0  0  0
  1  2  1  0
  2  3  1  0
  3  4  1  0
  4  5  1  0
  5  6  2  0
  5  7  1  0
  7  8  1  0
  8  9  1  0
  9 10  2  0
 10 11  1  0
 11 12  1  0
 12 13  2  0
 12 14  1  0
 14 15  1  0
 15 16  1  0
 15 17  2  0
 17 18  1  0
  4 19  1  0
 19 20  1  0
 20 21  2  0
 20 22  1  0
 18  8  1  0
 18 11  2  0
M  END
>  <rName>  (1266) 
Acguanin-9-yl-NEtNH2Gly

>  <PQ_SYMBOL>  (1266) 
Acguanin-9-yl-NEtNH2Gly

>  <FULL_NAME>  (1266) 
PNA Guanine

>  <IUPAC_CONDENSED>  (1266) 
Ac(guanin-9-yl)-N(EtNH2)Gly

>  <IUPAC>  (1266) 
2-((2-aminoethyl)((3-amino-5-oxo-2,4,7,9-tetraazabicyclo[4.3.0]nona-1(6),2,7-trien-9-yl)acetyl)amino)acetic acid

>  <TYPE>  (1266) 
Backbone

>  <CLASS>  (1266) 
unknown

>  <ANALOG>  (1266) 
Gly

>  <MOL_WT>  (1266) 
309.28600000000006

>  <LOGP>  (1266) 
-2.426299999999997

>  <TPSA>  (1266) 
173.21999999999997

>  <POPULARITY>  (1266) 
1

>  <PROTECTED>  (1266) 
FALSE

>  <SMILES>  (1266) 
NCCN(C(=O)Cn1(cnc2(c(=O)[nH]c(N)nc12)))CC(=O)O

>  <INCHIKEY>  (1266) 
WYRWRGIGYVLOGE-UHFFFAOYSA-N

$$$$
Acthymin-1-yl-NEtNH2Gly
     RDKit          2D

 20 20  0  0  0  0  0  0  0  0999 V2000
   -5.4854    2.3809    0.0000 N   0  0  0  0  0  0  0  0  0  0  0  0
   -4.5477    1.2101    0.0000 C   0  0  0  0  0  0  0  0  0  0  0  0
   -3.0649    1.4369    0.0000 C   0  0  0  0  0  0  0  0  0  0  0  0
   -2.1272    0.2661    0.0000 N   0  0  0  0  0  0  0  0  0  0  0  0
   -0.6444    0.4928    0.0000 C   0  0  0  0  0  0  0  0  0  0  0  0
   -0.0994    1.8903    0.0000 O   0  0  0  0  0  0  0  0  0  0  0  0
    0.2933   -0.6779    0.0000 C   0  0  0  0  0  0  0  0  0  0  0  0
    1.7761   -0.4512    0.0000 N   0  0  0  0  0  0  0  0  0  0  0  0
    2.3211    0.9463    0.0000 C   0  0  0  0  0  0  0  0  0  0  0  0
    3.8039    1.1730    0.0000 C   0  0  0  0  0  0  0  0  0  0  0  0
    4.3489    2.5705    0.0000 C   0  0  0  0  0  0  0  0  0  0  0  0
    4.7416    0.0022    0.0000 C   0  0  0  0  0  0  0  0  0  0  0  0
    6.2244    0.2290    0.0000 O   0  0  0  0  0  0  0  0  0  0  0  0
    4.1966   -1.3952    0.0000 N   0  0  0  0  0  0  0  0  0  0  0  0
    2.7138   -1.6220    0.0000 C   0  0  0  0  0  0  0  0  0  0  0  0
    2.1688   -3.0194    0.0000 O   0  0  0  0  0  0  0  0  0  0  0  0
   -2.6722   -1.1314    0.0000 C   0  0  0  0  0  0  0  0  0  0  0  0
   -4.1550   -1.3581    0.0000 C   0  0  0  0  0  0  0  0  0  0  0  0
   -5.0927   -0.1873    0.0000 O   0  0  0  0  0  0  0  0  0  0  0  0
   -4.7000   -2.7556    0.0000 O   0  0  0  0  0  0  0  0  0  0  0  0
  1  2  1  0
  2  3  1  0
  3  4  1  0
  4  5  1  0
  5  6  2  0
  5  7  1  0
  7  8  1  0
  8  9  1  0
  9 10  2  0
 10 11  1  0
 10 12  1  0
 12 13  2  0
 12 14  1  0
 14 15  1  0
 15 16  2  0
  4 17  1  0
 17 18  1  0
 18 19  2  0
 18 20  1  0
 15  8  1  0
M  END
>  <rName>  (1267) 
Acthymin-1-yl-NEtNH2Gly

>  <PQ_SYMBOL>  (1267) 
Acthymin-1-yl-NEtNH2Gly

>  <FULL_NAME>  (1267) 
PNA Thymine

>  <IUPAC_CONDENSED>  (1267) 
Ac(thymin-1-yl)-N(EtNH2)Gly

>  <IUPAC>  (1267) 
2-((2-aminoethyl)((5-methyl-2,4-dioxo-1,3-diazacyclohex-5-en-1-yl)acetyl)amino)acetic acid

>  <TYPE>  (1267) 
Backbone

>  <CLASS>  (1267) 
unknown

>  <ANALOG>  (1267) 
Gly

>  <MOL_WT>  (1267) 
284.272

>  <LOGP>  (1267) 
-2.2830799999999973

>  <TPSA>  (1267) 
138.48999999999998

>  <POPULARITY>  (1267) 
2

>  <PROTECTED>  (1267) 
FALSE

>  <SMILES>  (1267) 
NCCN(C(=O)Cn1(cc(C)c(=O)[nH]c1=O))CC(=O)O

>  <INCHIKEY>  (1267) 
NSCRQJLBPSKCNK-UHFFFAOYSA-N

$$$$
7-piperazino-1-oxoisoquinolin-2-acetyl
     RDKit          2D

 21 23  0  0  0  0  0  0  0  0999 V2000
   -6.3081   -1.1177    0.0000 N   0  0  0  0  0  0  0  0  0  0  0  0
   -6.0781    0.3646    0.0000 C   0  0  0  0  0  0  0  0  0  0  0  0
   -4.6795    0.9066    0.0000 C   0  0  0  0  0  0  0  0  0  0  0  0
   -3.5108   -0.0337    0.0000 N   0  0  0  0  0  0  0  0  0  0  0  0
   -3.7407   -1.5159    0.0000 C   0  0  0  0  0  0  0  0  0  0  0  0
   -5.1393   -2.0579    0.0000 C   0  0  0  0  0  0  0  0  0  0  0  0
   -2.1121    0.5084    0.0000 C   0  0  0  0  0  0  0  0  0  0  0  0
   -0.9434   -0.4319    0.0000 C   0  0  0  0  0  0  0  0  0  0  0  0
    0.4553    0.1101    0.0000 C   0  0  0  0  0  0  0  0  0  0  0  0
    1.6240   -0.8302    0.0000 C   0  0  0  0  0  0  0  0  0  0  0  0
    1.3940   -2.3125    0.0000 O   0  0  0  0  0  0  0  0  0  0  0  0
    3.0226   -0.2882    0.0000 N   0  0  0  0  0  0  0  0  0  0  0  0
    3.2526    1.1941    0.0000 C   0  0  0  0  0  0  0  0  0  0  0  0
    2.0839    2.1344    0.0000 C   0  0  0  0  0  0  0  0  0  0  0  0
    0.6852    1.5924    0.0000 C   0  0  0  0  0  0  0  0  0  0  0  0
   -0.4835    2.5326    0.0000 C   0  0  0  0  0  0  0  0  0  0  0  0
   -1.8822    1.9906    0.0000 C   0  0  0  0  0  0  0  0  0  0  0  0
    4.1914   -1.2285    0.0000 C   0  0  0  0  0  0  0  0  0  0  0  0
    5.5900   -0.6865    0.0000 C   0  0  0  0  0  0  0  0  0  0  0  0
    5.8199    0.7958    0.0000 O   0  0  0  0  0  0  0  0  0  0  0  0
    6.7587   -1.6267    0.0000 O   0  0  0  0  0  0  0  0  0  0  0  0
  1  2  1  0
  2  3  1  0
  3  4  1  0
  4  5  1  0
  5  6  1  0
  4  7  1  0
  7  8  2  0
  8  9  1  0
  9 10  1  0
 10 11  2  0
 10 12  1  0
 12 13  1  0
 13 14  2  0
 14 15  1  0
 15 16  1  0
 16 17  2  0
 12 18  1  0
 18 19  1  0
 19 20  2  0
 19 21  1  0
 15  9  2  0
 17  7  1  0
  6  1  1  0
M  END
>  <rName>  (1268) 
7-piperazino-1-oxoisoquinolin-2-acetyl

>  <PQ_SYMBOL>  (1268) 
7-piperazino-1-oxoisoquinolin-2-acetyl

>  <FULL_NAME>  (1268) 
2-[1-oxo-7-(piperazin-1-yl)-1,2-dihydroisoquinolin-2-yl]acetic acid

>  <IUPAC_CONDENSED>  (1268) 
7-piperazino-1-oxoisoquinolin-2-acetyl

>  <IUPAC>  (1268) 
2-(2-oxo-9-(piperazin-1-yl)-3-azabicyclo[4.4.0]deca-1(6),4,7,9-tetraen-3-yl)acetic acid

>  <TYPE>  (1268) 
Backbone

>  <CLASS>  (1268) 
unknown

>  <ANALOG>  (1268) 
X

>  <MOL_WT>  (1268) 
287.319

>  <LOGP>  (1268) 
0.49569999999999953

>  <TPSA>  (1268) 
74.57000000000001

>  <POPULARITY>  (1268) 
0.8

>  <PROTECTED>  (1268) 
FALSE

>  <SMILES>  (1268) 
N3CCN(CC3)c2cc1c(=O)n(ccc1cc2)CC(=O)O

>  <INCHIKEY>  (1268) 
GSBQFRXLCFVVOM-UHFFFAOYSA-N

$$$$
Sta_3xi_4xi
     RDKit          2D

 12 11  0  0  0  0  0  0  0  0999 V2000
   -0.9360   -1.7497    0.0000 N   0  0  0  0  0  0  0  0  0  0  0  0
   -0.7004   -0.2683    0.0000 C   0  0  0  0  0  0  0  0  0  0  0  0
   -1.8655    0.6764    0.0000 C   0  0  0  0  0  0  0  0  0  0  0  0
   -3.2662    0.1397    0.0000 C   0  0  0  0  0  0  0  0  0  0  0  0
   -4.4313    1.0845    0.0000 C   0  0  0  0  0  0  0  0  0  0  0  0
   -3.5018   -1.3417    0.0000 C   0  0  0  0  0  0  0  0  0  0  0  0
    0.7004    0.2683    0.0000 C   0  0  0  0  0  0  0  0  0  0  0  0
    0.9360    1.7497    0.0000 O   0  0  0  0  0  0  0  0  0  0  0  0
    1.8655   -0.6764    0.0000 C   0  0  0  0  0  0  0  0  0  0  0  0
    3.2662   -0.1397    0.0000 C   0  0  0  0  0  0  0  0  0  0  0  0
    3.5018    1.3417    0.0000 O   0  0  0  0  0  0  0  0  0  0  0  0
    4.4313   -1.0845    0.0000 O   0  0  0  0  0  0  0  0  0  0  0  0
  1  2  1  0
  2  3  1  0
  3  4  1  0
  4  5  1  0
  4  6  1  0
  2  7  1  0
  7  8  1  0
  7  9  1  0
  9 10  1  0
 10 11  2  0
 10 12  1  0
M  END
>  <rName>  (1269) 
Sta_3xi_4xi

>  <PQ_SYMBOL>  (1269) 
Sta_3xi_4xi

>  <FULL_NAME>  (1269) 
4-amino-3-hydroxy-6-methylheptanoic acid

>  <IUPAC_CONDENSED>  (1269) 
Sta(3xi,4xi)

>  <IUPAC>  (1269) 
4-amino-3-hydroxy-6-methylheptanoic acid

>  <TYPE>  (1269) 
Backbone

>  <CLASS>  (1269) 
gamma

>  <ANALOG>  (1269) 
Leu

>  <MOL_WT>  (1269) 
175.22799999999998

>  <LOGP>  (1269) 
0.19539999999999957

>  <TPSA>  (1269) 
83.55

>  <POPULARITY>  (1269) 
6.9

>  <PROTECTED>  (1269) 
FALSE

>  <SMILES>  (1269) 
NC(CC(C)C)C(O)CC(=O)O

>  <INCHIKEY>  (1269) 
DFVFTMTWCUHJBL-UHFFFAOYSA-N

$$$$
aMeTyr_3OH
     RDKit          2D

 15 15  0  0  0  0  0  0  0  0999 V2000
   -1.1644    1.5206    0.0000 N   0  0  0  0  0  0  0  0  0  0  0  0
   -2.2310    0.4660    0.0000 C   0  0  0  0  0  0  0  0  0  0  0  0
   -3.2857    1.5327    0.0000 C   0  0  0  0  0  0  0  0  0  0  0  0
   -1.1764   -0.6006    0.0000 C   0  0  0  0  0  0  0  0  0  0  0  0
    0.2747   -0.2206    0.0000 C   0  0  0  0  0  0  0  0  0  0  0  0
    0.6711    1.2260    0.0000 C   0  0  0  0  0  0  0  0  0  0  0  0
    2.1222    1.6061    0.0000 C   0  0  0  0  0  0  0  0  0  0  0  0
    3.1768    0.5394    0.0000 C   0  0  0  0  0  0  0  0  0  0  0  0
    4.6279    0.9194    0.0000 O   0  0  0  0  0  0  0  0  0  0  0  0
    2.7804   -0.9073    0.0000 C   0  0  0  0  0  0  0  0  0  0  0  0
    3.8350   -1.9739    0.0000 O   0  0  0  0  0  0  0  0  0  0  0  0
    1.3293   -1.2873    0.0000 C   0  0  0  0  0  0  0  0  0  0  0  0
   -3.2977   -0.5886    0.0000 C   0  0  0  0  0  0  0  0  0  0  0  0
   -4.7444   -0.1922    0.0000 O   0  0  0  0  0  0  0  0  0  0  0  0
   -2.9177   -2.0397    0.0000 O   0  0  0  0  0  0  0  0  0  0  0  0
  1  2  1  0
  2  3  1  6
  2  4  1  0
  4  5  1  0
  5  6  1  0
  6  7  2  0
  7  8  1  0
  8  9  1  0
  8 10  2  0
 10 11  1  0
 10 12  1  0
  2 13  1  0
 13 14  2  0
 13 15  1  0
 12  5  2  0
M  END
>  <rName>  (1270) 
aMeTyr_3OH

>  <PQ_SYMBOL>  (1270) 
aMeTyr_3OH

>  <FULL_NAME>  (1270) 
(2S)-2-amino-3-(3,4-dihydroxyphenyl)-2-methylpropanoic acid

>  <IUPAC_CONDENSED>  (1270) 
aMeTyr(3-OH)

>  <IUPAC>  (1270) 
(2S)-2-amino-2-((3,4-dihydroxyphenyl)methyl)propanoic acid

>  <TYPE>  (1270) 
Backbone

>  <CLASS>  (1270) 
alpha

>  <ANALOG>  (1270) 
Tyr

>  <MOL_WT>  (1270) 
211.21699999999998

>  <LOGP>  (1270) 
0.44229999999999975

>  <TPSA>  (1270) 
103.78000000000002

>  <POPULARITY>  (1270) 
5.8

>  <PROTECTED>  (1270) 
FALSE

>  <SMILES>  (1270) 
N[C@@](C)(Cc1(ccc(O)c(O)c1))C(=O)O

>  <INCHIKEY>  (1270) 
CJCSPKMFHVPWAR-JTQLQIEISA-N

$$$$
Gly_Bn_4OMe
     RDKit          2D

 14 14  0  0  0  0  0  0  0  0999 V2000
   -2.0397    1.6757    0.0000 N   0  0  0  0  0  0  0  0  0  0  0  0
   -2.4395    0.2299    0.0000 C   0  0  0  0  0  0  0  0  0  0  0  0
   -1.3873   -0.8392    0.0000 C   0  0  0  0  0  0  0  0  0  0  0  0
    0.0646   -0.4625    0.0000 C   0  0  0  0  0  0  0  0  0  0  0  0
    0.4644    0.9832    0.0000 C   0  0  0  0  0  0  0  0  0  0  0  0
    1.9164    1.3598    0.0000 C   0  0  0  0  0  0  0  0  0  0  0  0
    2.9685    0.2907    0.0000 C   0  0  0  0  0  0  0  0  0  0  0  0
    4.4205    0.6674    0.0000 O   0  0  0  0  0  0  0  0  0  0  0  0
    5.4726   -0.4017    0.0000 C   0  0  0  0  0  0  0  0  0  0  0  0
    2.5687   -1.1550    0.0000 C   0  0  0  0  0  0  0  0  0  0  0  0
    1.1168   -1.5316    0.0000 C   0  0  0  0  0  0  0  0  0  0  0  0
   -3.8914   -0.1467    0.0000 C   0  0  0  0  0  0  0  0  0  0  0  0
   -4.2912   -1.5924    0.0000 O   0  0  0  0  0  0  0  0  0  0  0  0
   -4.9436    0.9224    0.0000 O   0  0  0  0  0  0  0  0  0  0  0  0
  1  2  1  0
  2  3  2  3
  3  4  1  0
  4  5  1  0
  5  6  2  0
  6  7  1  0
  7  8  1  0
  8  9  1  0
  7 10  2  0
 10 11  1  0
  2 12  1  0
 12 13  2  0
 12 14  1  0
 11  4  2  0
M  END
>  <rName>  (1271) 
Gly_Bn_4OMe

>  <PQ_SYMBOL>  (1271) 
Gly_Bn_4OMe

>  <FULL_NAME>  (1271) 
2-amino-3-(4-methoxyphenyl)prop-2-enoic acid

>  <IUPAC_CONDENSED>  (1271) 
Gly(Bn(4-OMe))

>  <IUPAC>  (1271) 
2-amino-3-(4-methoxyphenyl)prop-2-enoic acid

>  <TYPE>  (1271) 
Backbone

>  <CLASS>  (1271) 
unknown

>  <ANALOG>  (1271) 
Tyr

>  <MOL_WT>  (1271) 
193.202

>  <LOGP>  (1271) 
1.0794000000000001

>  <TPSA>  (1271) 
72.55

>  <POPULARITY>  (1271) 
6.6

>  <PROTECTED>  (1271) 
FALSE

>  <SMILES>  (1271) 
NC(=Cc1(ccc(OC)cc1))C(=O)O

>  <INCHIKEY>  (1271) 
VBLXRBFONPGLBL-UHFFFAOYSA-N

$$$$
Tyr_Ph_4OH
     RDKit          2D

 20 21  0  0  0  0  0  0  0  0999 V2000
   -4.5009    1.4804    0.0000 N   0  0  0  0  0  0  0  0  0  0  0  0
   -4.6300   -0.0140    0.0000 C   0  0  0  0  0  0  0  0  0  0  0  0
   -3.4003   -0.8730    0.0000 C   0  0  0  0  0  0  0  0  0  0  0  0
   -2.0415   -0.2376    0.0000 C   0  0  0  0  0  0  0  0  0  0  0  0
   -1.9124    1.2568    0.0000 C   0  0  0  0  0  0  0  0  0  0  0  0
   -0.5536    1.8922    0.0000 C   0  0  0  0  0  0  0  0  0  0  0  0
    0.6760    1.0331    0.0000 C   0  0  0  0  0  0  0  0  0  0  0  0
    2.0348    1.6685    0.0000 O   0  0  0  0  0  0  0  0  0  0  0  0
    3.2644    0.8095    0.0000 C   0  0  0  0  0  0  0  0  0  0  0  0
    3.1353   -0.6849    0.0000 C   0  0  0  0  0  0  0  0  0  0  0  0
    4.3650   -1.5440    0.0000 C   0  0  0  0  0  0  0  0  0  0  0  0
    5.7238   -0.9086    0.0000 C   0  0  0  0  0  0  0  0  0  0  0  0
    6.9534   -1.7676    0.0000 O   0  0  0  0  0  0  0  0  0  0  0  0
    5.8529    0.5858    0.0000 C   0  0  0  0  0  0  0  0  0  0  0  0
    4.6232    1.4449    0.0000 C   0  0  0  0  0  0  0  0  0  0  0  0
    0.5469   -0.4613    0.0000 C   0  0  0  0  0  0  0  0  0  0  0  0
   -0.8119   -1.0967    0.0000 C   0  0  0  0  0  0  0  0  0  0  0  0
   -5.9888   -0.6494    0.0000 C   0  0  0  0  0  0  0  0  0  0  0  0
   -6.1179   -2.1438    0.0000 O   0  0  0  0  0  0  0  0  0  0  0  0
   -7.2184    0.2097    0.0000 O   0  0  0  0  0  0  0  0  0  0  0  0
  2  1  1  1
  2  3  1  0
  3  4  1  0
  4  5  1  0
  5  6  2  0
  6  7  1  0
  7  8  1  0
  8  9  1  0
  9 10  1  0
 10 11  2  0
 11 12  1  0
 12 13  1  0
 12 14  2  0
 14 15  1  0
  7 16  2  0
 16 17  1  0
  2 18  1  0
 18 19  2  0
 18 20  1  0
 15  9  2  0
 17  4  2  0
M  END
>  <rName>  (1272) 
Tyr_Ph_4OH

>  <PQ_SYMBOL>  (1272) 
Tyr_Ph_4OH

>  <FULL_NAME>  (1272) 
(2S)-2-amino-3-[4-(4-hydroxyphenoxy)phenyl]propanoic acid

>  <IUPAC_CONDENSED>  (1272) 
Tyr(Ph(4-OH))

>  <IUPAC>  (1272) 
(2S)-2-amino-3-(4-((4-hydroxyphenyl)oxy)phenyl)propanoic acid

>  <TYPE>  (1272) 
Backbone

>  <CLASS>  (1272) 
alpha

>  <ANALOG>  (1272) 
Tyr

>  <MOL_WT>  (1272) 
273.288

>  <LOGP>  (1272) 
2.1388999999999996

>  <TPSA>  (1272) 
92.78000000000002

>  <POPULARITY>  (1272) 
5.7

>  <PROTECTED>  (1272) 
FALSE

>  <SMILES>  (1272) 
N[C@@H](Cc2(ccc(Oc1(ccc(O)cc1))cc2))C(=O)O

>  <INCHIKEY>  (1272) 
KKCIOUWDFWQUBT-AWEZNQCLSA-N

$$$$
Nprop2ynyl-G
     RDKit          2D

  8  7  0  0  0  0  0  0  0  0999 V2000
    0.3245    0.0130    0.0000 N   0  0  0  0  0  0  0  0  0  0  0  0
    1.5925    0.8143    0.0000 C   0  0  0  0  0  0  0  0  0  0  0  0
    2.9205    0.1168    0.0000 C   0  0  0  0  0  0  0  0  0  0  0  0
    4.2485   -0.5807    0.0000 C   0  0  0  0  0  0  0  0  0  0  0  0
   -1.0035    0.7105    0.0000 C   0  0  0  0  0  0  0  0  0  0  0  0
   -2.2715   -0.0908    0.0000 C   0  0  0  0  0  0  0  0  0  0  0  0
   -2.2116   -1.5896    0.0000 O   0  0  0  0  0  0  0  0  0  0  0  0
   -3.5995    0.6067    0.0000 O   0  0  0  0  0  0  0  0  0  0  0  0
  1  2  1  0
  2  3  1  0
  3  4  3  0
  1  5  1  0
  5  6  1  0
  6  7  2  0
  6  8  1  0
M  END
>  <rName>  (1273) 
Nprop2ynyl-G

>  <PQ_SYMBOL>  (1273) 
Nprop2ynyl-G

>  <FULL_NAME>  (1273) 
N-(propargyl)glycine

>  <IUPAC_CONDENSED>  (1273) 
prop-2-ynyl-Gly

>  <IUPAC>  (1273) 
2-((prop-2-yn-1-yl)amino)acetic acid

>  <TYPE>  (1273) 
Backbone

>  <CLASS>  (1273) 
alpha

>  <ANALOG>  (1273) 
Gly

>  <MOL_WT>  (1273) 
113.11599999999999

>  <LOGP>  (1273) 
-0.7062000000000002

>  <TPSA>  (1273) 
49.33

>  <POPULARITY>  (1273) 
9.7

>  <PROTECTED>  (1273) 
TRUE

>  <SMILES>  (1273) 
N(CC#C)CC(=O)O

>  <INCHIKEY>  (1273) 
XSJLQGMTIHCDSS-UHFFFAOYSA-N

$$$$
NtBu-G
     RDKit          2D

  9  8  0  0  0  0  0  0  0  0999 V2000
   -0.3465    0.4910    0.0000 N   0  0  0  0  0  0  0  0  0  0  0  0
   -1.7638   -0.0000    0.0000 C   0  0  0  0  0  0  0  0  0  0  0  0
   -2.2548    1.4174    0.0000 C   0  0  0  0  0  0  0  0  0  0  0  0
   -1.2728   -1.4174    0.0000 C   0  0  0  0  0  0  0  0  0  0  0  0
   -3.1812   -0.4910    0.0000 C   0  0  0  0  0  0  0  0  0  0  0  0
    0.7874   -0.4910    0.0000 C   0  0  0  0  0  0  0  0  0  0  0  0
    2.2048   -0.0000    0.0000 C   0  0  0  0  0  0  0  0  0  0  0  0
    2.4883    1.4730    0.0000 O   0  0  0  0  0  0  0  0  0  0  0  0
    3.3387   -0.9820    0.0000 O   0  0  0  0  0  0  0  0  0  0  0  0
  1  2  1  0
  2  3  1  0
  2  4  1  0
  2  5  1  0
  1  6  1  0
  6  7  1  0
  7  8  2  0
  7  9  1  0
M  END
>  <rName>  (1274) 
NtBu-G

>  <PQ_SYMBOL>  (1274) 
NtBu-G

>  <FULL_NAME>  (1274) 
N-(tert-butyl)glycine

>  <IUPAC_CONDENSED>  (1274) 
tBu-Gly

>  <IUPAC>  (1274) 
2-((tert-butyl)amino)acetic acid

>  <TYPE>  (1274) 
Backbone

>  <CLASS>  (1274) 
alpha

>  <ANALOG>  (1274) 
Gly

>  <MOL_WT>  (1274) 
131.175

>  <LOGP>  (1274) 
0.4591

>  <TPSA>  (1274) 
49.33

>  <POPULARITY>  (1274) 
12.2

>  <PROTECTED>  (1274) 
TRUE

>  <SMILES>  (1274) 
N(C(C)(C)C)CC(=O)O

>  <INCHIKEY>  (1274) 
TXHAHOVNFDVCCC-UHFFFAOYSA-N

$$$$
D-Trp_5Br
     RDKit          2D

 16 17  0  0  0  0  0  0  0  0999 V2000
   -3.0564   -1.5854    0.0000 N   0  0  0  0  0  0  0  0  0  0  0  0
   -2.8364   -0.1016    0.0000 C   0  0  0  0  0  0  0  0  0  0  0  0
   -1.4415    0.4499    0.0000 C   0  0  0  0  0  0  0  0  0  0  0  0
   -0.2664   -0.4825    0.0000 C   0  0  0  0  0  0  0  0  0  0  0  0
   -0.3301   -1.9811    0.0000 C   0  0  0  0  0  0  0  0  0  0  0  0
    1.0756   -2.5048    0.0000 N   0  0  0  0  0  0  0  0  0  0  0  0
    2.0079   -1.3297    0.0000 C   0  0  0  0  0  0  0  0  0  0  0  0
    3.5050   -1.2364    0.0000 C   0  0  0  0  0  0  0  0  0  0  0  0
    4.1727    0.1068    0.0000 C   0  0  0  0  0  0  0  0  0  0  0  0
    3.3433    1.3567    0.0000 C   0  0  0  0  0  0  0  0  0  0  0  0
    4.0110    2.6999    0.0000 Br  0  0  0  0  0  0  0  0  0  0  0  0
    1.8462    1.2633    0.0000 C   0  0  0  0  0  0  0  0  0  0  0  0
    1.1785   -0.0799    0.0000 C   0  0  0  0  0  0  0  0  0  0  0  0
   -4.0115    0.8308    0.0000 C   0  0  0  0  0  0  0  0  0  0  0  0
   -3.7915    2.3146    0.0000 O   0  0  0  0  0  0  0  0  0  0  0  0
   -5.4064    0.2794    0.0000 O   0  0  0  0  0  0  0  0  0  0  0  0
  2  1  1  1
  2  3  1  0
  3  4  1  0
  4  5  2  0
  5  6  1  0
  6  7  1  0
  7  8  1  0
  8  9  2  0
  9 10  1  0
 10 11  1  0
 10 12  2  0
 12 13  1  0
  2 14  1  0
 14 15  2  0
 14 16  1  0
 13  4  1  0
 13  7  2  0
M  END
>  <rName>  (1275) 
D-Trp_5Br

>  <PQ_SYMBOL>  (1275) 
D-Trp_5Br

>  <FULL_NAME>  (1275) 
5-bromo-D-tryptophan

>  <IUPAC_CONDENSED>  (1275) 
D-Trp(5-Br)

>  <IUPAC>  (1275) 
(2R)-2-amino-3-(5-bromo-1H-indol-3-yl)propanoic acid

>  <TYPE>  (1275) 
Backbone

>  <CLASS>  (1275) 
alpha

>  <ANALOG>  (1275) 
Trp

>  <MOL_WT>  (1275) 
283.125

>  <LOGP>  (1275) 
1.8848000000000003

>  <TPSA>  (1275) 
79.11

>  <POPULARITY>  (1275) 
5.8

>  <PROTECTED>  (1275) 
TRUE

>  <SMILES>  (1275) 
N[C@H](Cc1(c[nH]c2(ccc(Br)cc12)))C(=O)O

>  <INCHIKEY>  (1275) 
KZDNJQUJBMDHJW-SECBINFHSA-N

$$$$
D-Trp_5Cl
     RDKit          2D

 16 17  0  0  0  0  0  0  0  0999 V2000
   -3.0564   -1.5854    0.0000 N   0  0  0  0  0  0  0  0  0  0  0  0
   -2.8364   -0.1016    0.0000 C   0  0  0  0  0  0  0  0  0  0  0  0
   -1.4415    0.4499    0.0000 C   0  0  0  0  0  0  0  0  0  0  0  0
   -0.2664   -0.4825    0.0000 C   0  0  0  0  0  0  0  0  0  0  0  0
   -0.3301   -1.9811    0.0000 C   0  0  0  0  0  0  0  0  0  0  0  0
    1.0756   -2.5048    0.0000 N   0  0  0  0  0  0  0  0  0  0  0  0
    2.0079   -1.3297    0.0000 C   0  0  0  0  0  0  0  0  0  0  0  0
    3.5050   -1.2364    0.0000 C   0  0  0  0  0  0  0  0  0  0  0  0
    4.1727    0.1068    0.0000 C   0  0  0  0  0  0  0  0  0  0  0  0
    3.3433    1.3567    0.0000 C   0  0  0  0  0  0  0  0  0  0  0  0
    4.0110    2.6999    0.0000 Cl  0  0  0  0  0  0  0  0  0  0  0  0
    1.8462    1.2633    0.0000 C   0  0  0  0  0  0  0  0  0  0  0  0
    1.1785   -0.0799    0.0000 C   0  0  0  0  0  0  0  0  0  0  0  0
   -4.0115    0.8308    0.0000 C   0  0  0  0  0  0  0  0  0  0  0  0
   -3.7915    2.3146    0.0000 O   0  0  0  0  0  0  0  0  0  0  0  0
   -5.4064    0.2794    0.0000 O   0  0  0  0  0  0  0  0  0  0  0  0
  2  1  1  1
  2  3  1  0
  3  4  1  0
  4  5  2  0
  5  6  1  0
  6  7  1  0
  7  8  1  0
  8  9  2  0
  9 10  1  0
 10 11  1  0
 10 12  2  0
 12 13  1  0
  2 14  1  0
 14 15  2  0
 14 16  1  0
 13  4  1  0
 13  7  2  0
M  END
>  <rName>  (1276) 
D-Trp_5Cl

>  <PQ_SYMBOL>  (1276) 
D-Trp_5Cl

>  <FULL_NAME>  (1276) 
5-chloro-D-tryptophan

>  <IUPAC_CONDENSED>  (1276) 
D-Trp(5-Cl)

>  <IUPAC>  (1276) 
(2R)-2-amino-3-(5-chloro-1H-indol-3-yl)propanoic acid

>  <TYPE>  (1276) 
Backbone

>  <CLASS>  (1276) 
alpha

>  <ANALOG>  (1276) 
Trp

>  <MOL_WT>  (1276) 
238.67399999999998

>  <LOGP>  (1276) 
1.7757000000000003

>  <TPSA>  (1276) 
79.11

>  <POPULARITY>  (1276) 
5.9

>  <PROTECTED>  (1276) 
TRUE

>  <SMILES>  (1276) 
N[C@H](Cc1(c[nH]c2(ccc(Cl)cc12)))C(=O)O

>  <INCHIKEY>  (1276) 
TUKKZLIDCNWKIN-SECBINFHSA-N

$$$$
D-Trp_6Br
     RDKit          2D

 16 17  0  0  0  0  0  0  0  0999 V2000
   -3.0545   -1.6426    0.0000 N   0  0  0  0  0  0  0  0  0  0  0  0
   -2.9369   -0.1473    0.0000 C   0  0  0  0  0  0  0  0  0  0  0  0
   -1.5831    0.4986    0.0000 C   0  0  0  0  0  0  0  0  0  0  0  0
   -0.3468   -0.3509    0.0000 C   0  0  0  0  0  0  0  0  0  0  0  0
   -0.3075   -1.8504    0.0000 C   0  0  0  0  0  0  0  0  0  0  0  0
    1.1308   -2.2763    0.0000 N   0  0  0  0  0  0  0  0  0  0  0  0
    1.9803   -1.0400    0.0000 C   0  0  0  0  0  0  0  0  0  0  0  0
    3.4675   -0.8441    0.0000 C   0  0  0  0  0  0  0  0  0  0  0  0
    4.0414    0.5417    0.0000 C   0  0  0  0  0  0  0  0  0  0  0  0
    5.5285    0.7376    0.0000 Br  0  0  0  0  0  0  0  0  0  0  0  0
    3.1281    1.7317    0.0000 C   0  0  0  0  0  0  0  0  0  0  0  0
    1.6410    1.5358    0.0000 C   0  0  0  0  0  0  0  0  0  0  0  0
    1.0671    0.1499    0.0000 C   0  0  0  0  0  0  0  0  0  0  0  0
   -4.1732    0.7023    0.0000 C   0  0  0  0  0  0  0  0  0  0  0  0
   -4.0556    2.1976    0.0000 O   0  0  0  0  0  0  0  0  0  0  0  0
   -5.5270    0.0564    0.0000 O   0  0  0  0  0  0  0  0  0  0  0  0
  2  1  1  1
  2  3  1  0
  3  4  1  0
  4  5  2  0
  5  6  1  0
  6  7  1  0
  7  8  1  0
  8  9  2  0
  9 10  1  0
  9 11  1  0
 11 12  2  0
 12 13  1  0
  2 14  1  0
 14 15  2  0
 14 16  1  0
 13  4  1  0
 13  7  2  0
M  END
>  <rName>  (1277) 
D-Trp_6Br

>  <PQ_SYMBOL>  (1277) 
D-Trp_6Br

>  <FULL_NAME>  (1277) 
6-bromo-D-tryptophan

>  <IUPAC_CONDENSED>  (1277) 
D-Trp(6-Br)

>  <IUPAC>  (1277) 
(2R)-2-amino-3-(6-bromo-1H-indol-3-yl)propanoic acid

>  <TYPE>  (1277) 
Backbone

>  <CLASS>  (1277) 
alpha

>  <ANALOG>  (1277) 
Trp

>  <MOL_WT>  (1277) 
283.125

>  <LOGP>  (1277) 
1.8848000000000003

>  <TPSA>  (1277) 
79.11

>  <POPULARITY>  (1277) 
5.8

>  <PROTECTED>  (1277) 
TRUE

>  <SMILES>  (1277) 
N[C@H](Cc1(c[nH]c2(cc(Br)ccc12)))C(=O)O

>  <INCHIKEY>  (1277) 
OAORYCZPERQARS-SECBINFHSA-N

$$$$
D-Trp_6Cl
     RDKit          2D

 16 17  0  0  0  0  0  0  0  0999 V2000
   -3.0545   -1.6426    0.0000 N   0  0  0  0  0  0  0  0  0  0  0  0
   -2.9369   -0.1473    0.0000 C   0  0  0  0  0  0  0  0  0  0  0  0
   -1.5831    0.4986    0.0000 C   0  0  0  0  0  0  0  0  0  0  0  0
   -0.3468   -0.3509    0.0000 C   0  0  0  0  0  0  0  0  0  0  0  0
   -0.3075   -1.8504    0.0000 C   0  0  0  0  0  0  0  0  0  0  0  0
    1.1308   -2.2763    0.0000 N   0  0  0  0  0  0  0  0  0  0  0  0
    1.9803   -1.0400    0.0000 C   0  0  0  0  0  0  0  0  0  0  0  0
    3.4675   -0.8441    0.0000 C   0  0  0  0  0  0  0  0  0  0  0  0
    4.0414    0.5417    0.0000 C   0  0  0  0  0  0  0  0  0  0  0  0
    5.5285    0.7376    0.0000 Cl  0  0  0  0  0  0  0  0  0  0  0  0
    3.1281    1.7317    0.0000 C   0  0  0  0  0  0  0  0  0  0  0  0
    1.6410    1.5358    0.0000 C   0  0  0  0  0  0  0  0  0  0  0  0
    1.0671    0.1499    0.0000 C   0  0  0  0  0  0  0  0  0  0  0  0
   -4.1732    0.7023    0.0000 C   0  0  0  0  0  0  0  0  0  0  0  0
   -4.0556    2.1976    0.0000 O   0  0  0  0  0  0  0  0  0  0  0  0
   -5.5270    0.0564    0.0000 O   0  0  0  0  0  0  0  0  0  0  0  0
  2  1  1  1
  2  3  1  0
  3  4  1  0
  4  5  2  0
  5  6  1  0
  6  7  1  0
  7  8  1  0
  8  9  2  0
  9 10  1  0
  9 11  1  0
 11 12  2  0
 12 13  1  0
  2 14  1  0
 14 15  2  0
 14 16  1  0
 13  4  1  0
 13  7  2  0
M  END
>  <rName>  (1278) 
D-Trp_6Cl

>  <PQ_SYMBOL>  (1278) 
D-Trp_6Cl

>  <FULL_NAME>  (1278) 
6-chloro-D-tryptophan

>  <IUPAC_CONDENSED>  (1278) 
D-Trp(6-Cl)

>  <IUPAC>  (1278) 
(2R)-2-amino-3-(6-chloro-1H-indol-3-yl)propanoic acid

>  <TYPE>  (1278) 
Backbone

>  <CLASS>  (1278) 
alpha

>  <ANALOG>  (1278) 
Trp

>  <MOL_WT>  (1278) 
238.67399999999998

>  <LOGP>  (1278) 
1.7757

>  <TPSA>  (1278) 
79.11

>  <POPULARITY>  (1278) 
5.9

>  <PROTECTED>  (1278) 
TRUE

>  <SMILES>  (1278) 
N[C@H](Cc1(c[nH]c2(cc(Cl)ccc12)))C(=O)O

>  <INCHIKEY>  (1278) 
FICLVQOYKYBXFN-SECBINFHSA-N

$$$$
D-Trp_7Br
     RDKit          2D

 16 17  0  0  0  0  0  0  0  0999 V2000
   -2.8116   -1.7751    0.0000 N   0  0  0  0  0  0  0  0  0  0  0  0
   -2.8520   -0.2757    0.0000 C   0  0  0  0  0  0  0  0  0  0  0  0
   -1.5737    0.5091    0.0000 C   0  0  0  0  0  0  0  0  0  0  0  0
   -0.2549   -0.2056    0.0000 C   0  0  0  0  0  0  0  0  0  0  0  0
   -0.0579   -1.6926    0.0000 C   0  0  0  0  0  0  0  0  0  0  0  0
    1.4172   -1.9648    0.0000 N   0  0  0  0  0  0  0  0  0  0  0  0
    2.1319   -0.6460    0.0000 C   0  0  0  0  0  0  0  0  0  0  0  0
    3.5902   -0.2947    0.0000 C   0  0  0  0  0  0  0  0  0  0  0  0
    4.6235   -1.3820    0.0000 Br  0  0  0  0  0  0  0  0  0  0  0  0
    4.0150    1.1438    0.0000 C   0  0  0  0  0  0  0  0  0  0  0  0
    2.9816    2.2311    0.0000 C   0  0  0  0  0  0  0  0  0  0  0  0
    1.5234    1.8798    0.0000 C   0  0  0  0  0  0  0  0  0  0  0  0
    1.0985    0.4412    0.0000 C   0  0  0  0  0  0  0  0  0  0  0  0
   -4.1708    0.4390    0.0000 C   0  0  0  0  0  0  0  0  0  0  0  0
   -4.2113    1.9385    0.0000 O   0  0  0  0  0  0  0  0  0  0  0  0
   -5.4491   -0.3458    0.0000 O   0  0  0  0  0  0  0  0  0  0  0  0
  2  1  1  1
  2  3  1  0
  3  4  1  0
  4  5  2  0
  5  6  1  0
  6  7  1  0
  7  8  2  0
  8  9  1  0
  8 10  1  0
 10 11  2  0
 11 12  1  0
 12 13  2  0
  2 14  1  0
 14 15  2  0
 14 16  1  0
 13  4  1  0
 13  7  1  0
M  END
>  <rName>  (1279) 
D-Trp_7Br

>  <PQ_SYMBOL>  (1279) 
D-Trp_7Br

>  <FULL_NAME>  (1279) 
7-bromo-D-tryptophan

>  <IUPAC_CONDENSED>  (1279) 
D-Trp(7-Br)

>  <IUPAC>  (1279) 
(2R)-2-amino-3-(7-bromo-1H-indol-3-yl)propanoic acid

>  <TYPE>  (1279) 
Backbone

>  <CLASS>  (1279) 
alpha

>  <ANALOG>  (1279) 
Trp

>  <MOL_WT>  (1279) 
283.125

>  <LOGP>  (1279) 
1.8848

>  <TPSA>  (1279) 
79.11

>  <POPULARITY>  (1279) 
5.3

>  <PROTECTED>  (1279) 
TRUE

>  <SMILES>  (1279) 
N[C@H](Cc1(c[nH]c2(c(Br)cccc12)))C(=O)O

>  <INCHIKEY>  (1279) 
VMMOOBBCGTVDGP-SECBINFHSA-N

$$$$
D-Trp_7F
     RDKit          2D

 16 17  0  0  0  0  0  0  0  0999 V2000
   -2.8116   -1.7751    0.0000 N   0  0  0  0  0  0  0  0  0  0  0  0
   -2.8520   -0.2757    0.0000 C   0  0  0  0  0  0  0  0  0  0  0  0
   -1.5737    0.5091    0.0000 C   0  0  0  0  0  0  0  0  0  0  0  0
   -0.2549   -0.2056    0.0000 C   0  0  0  0  0  0  0  0  0  0  0  0
   -0.0579   -1.6926    0.0000 C   0  0  0  0  0  0  0  0  0  0  0  0
    1.4172   -1.9648    0.0000 N   0  0  0  0  0  0  0  0  0  0  0  0
    2.1319   -0.6460    0.0000 C   0  0  0  0  0  0  0  0  0  0  0  0
    3.5902   -0.2947    0.0000 C   0  0  0  0  0  0  0  0  0  0  0  0
    4.6235   -1.3820    0.0000 F   0  0  0  0  0  0  0  0  0  0  0  0
    4.0150    1.1438    0.0000 C   0  0  0  0  0  0  0  0  0  0  0  0
    2.9816    2.2311    0.0000 C   0  0  0  0  0  0  0  0  0  0  0  0
    1.5234    1.8798    0.0000 C   0  0  0  0  0  0  0  0  0  0  0  0
    1.0985    0.4412    0.0000 C   0  0  0  0  0  0  0  0  0  0  0  0
   -4.1708    0.4390    0.0000 C   0  0  0  0  0  0  0  0  0  0  0  0
   -4.2113    1.9385    0.0000 O   0  0  0  0  0  0  0  0  0  0  0  0
   -5.4491   -0.3458    0.0000 O   0  0  0  0  0  0  0  0  0  0  0  0
  2  1  1  1
  2  3  1  0
  3  4  1  0
  4  5  2  0
  5  6  1  0
  6  7  1  0
  7  8  2  0
  8  9  1  0
  8 10  1  0
 10 11  2  0
 11 12  1  0
 12 13  2  0
  2 14  1  0
 14 15  2  0
 14 16  1  0
 13  4  1  0
 13  7  1  0
M  END
>  <rName>  (1280) 
D-Trp_7F

>  <PQ_SYMBOL>  (1280) 
D-Trp_7F

>  <FULL_NAME>  (1280) 
7-fluoro-D-tryptophan

>  <IUPAC_CONDENSED>  (1280) 
D-Trp(7-F)

>  <IUPAC>  (1280) 
(2R)-2-amino-3-(7-fluoro-1H-indol-3-yl)propanoic acid

>  <TYPE>  (1280) 
Backbone

>  <CLASS>  (1280) 
alpha

>  <ANALOG>  (1280) 
Trp

>  <MOL_WT>  (1280) 
222.219

>  <LOGP>  (1280) 
1.2614000000000003

>  <TPSA>  (1280) 
79.11

>  <POPULARITY>  (1280) 
5.6

>  <PROTECTED>  (1280) 
TRUE

>  <SMILES>  (1280) 
N[C@H](Cc1(c[nH]c2(c(F)cccc12)))C(=O)O

>  <INCHIKEY>  (1280) 
ADMHYWIKJSPIGJ-SECBINFHSA-N

$$$$
Ala_thiazol2yl
     RDKit          2D

 11 11  0  0  0  0  0  0  0  0999 V2000
   -0.9461    1.6947    0.0000 N   0  0  0  0  0  0  0  0  0  0  0  0
   -1.3100    0.2395    0.0000 C   0  0  0  0  0  0  0  0  0  0  0  0
   -0.2317   -0.8032    0.0000 C   0  0  0  0  0  0  0  0  0  0  0  0
    1.2105   -0.3908    0.0000 C   0  0  0  0  0  0  0  0  0  0  0  0
    2.3919   -1.3151    0.0000 N   0  0  0  0  0  0  0  0  0  0  0  0
    3.6360   -0.4772    0.0000 C   0  0  0  0  0  0  0  0  0  0  0  0
    3.2236    0.9650    0.0000 C   0  0  0  0  0  0  0  0  0  0  0  0
    1.7245    1.0184    0.0000 S   0  0  0  0  0  0  0  0  0  0  0  0
   -2.7522   -0.1729    0.0000 C   0  0  0  0  0  0  0  0  0  0  0  0
   -3.1161   -1.6281    0.0000 O   0  0  0  0  0  0  0  0  0  0  0  0
   -3.8304    0.8698    0.0000 O   0  0  0  0  0  0  0  0  0  0  0  0
  2  1  1  1
  2  3  1  0
  3  4  1  0
  4  5  2  0
  5  6  1  0
  6  7  2  0
  7  8  1  0
  2  9  1  0
  9 10  2  0
  9 11  1  0
  8  4  1  0
M  END
>  <rName>  (1281) 
Ala_thiazol2yl

>  <PQ_SYMBOL>  (1281) 
Ala_thiazol2yl

>  <FULL_NAME>  (1281) 
β-(thiazol-2-yl)-L-alanine

>  <IUPAC_CONDENSED>  (1281) 
Ala(thiazol-2-yl)

>  <IUPAC>  (1281) 
(2S)-2-amino-3-(thiazol-2-yl)propanoic acid

>  <TYPE>  (1281) 
Backbone

>  <CLASS>  (1281) 
alpha

>  <ANALOG>  (1281) 
Phe

>  <MOL_WT>  (1281) 
172.20899999999997

>  <LOGP>  (1281) 
0.09749999999999986

>  <TPSA>  (1281) 
76.21

>  <POPULARITY>  (1281) 
9.1

>  <PROTECTED>  (1281) 
TRUE

>  <SMILES>  (1281) 
N[C@@H](Cc1(nccs1))C(=O)O

>  <INCHIKEY>  (1281) 
PXFXXRSFSGRBRT-BYPYZUCNSA-N

$$$$
Phe_2F_4Cl
     RDKit          2D

 14 14  0  0  0  0  0  0  0  0999 V2000
   -1.7174    1.8436    0.0000 N   0  0  0  0  0  0  0  0  0  0  0  0
   -2.1036    0.3942    0.0000 C   0  0  0  0  0  0  0  0  0  0  0  0
   -1.0414   -0.6650    0.0000 C   0  0  0  0  0  0  0  0  0  0  0  0
    0.4069   -0.2747    0.0000 C   0  0  0  0  0  0  0  0  0  0  0  0
    0.7931    1.1747    0.0000 C   0  0  0  0  0  0  0  0  0  0  0  0
    2.2415    1.5649    0.0000 C   0  0  0  0  0  0  0  0  0  0  0  0
    3.3036    0.5057    0.0000 C   0  0  0  0  0  0  0  0  0  0  0  0
    4.7520    0.8960    0.0000 Cl  0  0  0  0  0  0  0  0  0  0  0  0
    2.9174   -0.9437    0.0000 C   0  0  0  0  0  0  0  0  0  0  0  0
    1.4691   -1.3339    0.0000 C   0  0  0  0  0  0  0  0  0  0  0  0
    1.0829   -2.7834    0.0000 F   0  0  0  0  0  0  0  0  0  0  0  0
   -3.5519    0.0039    0.0000 C   0  0  0  0  0  0  0  0  0  0  0  0
   -3.9381   -1.4455    0.0000 O   0  0  0  0  0  0  0  0  0  0  0  0
   -4.6140    1.0631    0.0000 O   0  0  0  0  0  0  0  0  0  0  0  0
  2  1  1  1
  2  3  1  0
  3  4  1  0
  4  5  1  0
  5  6  2  0
  6  7  1  0
  7  8  1  0
  7  9  2  0
  9 10  1  0
 10 11  1  0
  2 12  1  0
 12 13  2  0
 12 14  1  0
 10  4  2  0
M  END
>  <rName>  (1282) 
Phe_2F_4Cl

>  <PQ_SYMBOL>  (1282) 
Phe_2F_4Cl

>  <FULL_NAME>  (1282) 
4-chloro-2-fluoro-L-phenylalanine

>  <IUPAC_CONDENSED>  (1282) 
Phe(2-F,4-Cl)

>  <IUPAC>  (1282) 
(2S)-2-amino-3-(4-chloro-2-fluorophenyl)propanoic acid

>  <TYPE>  (1282) 
Backbone

>  <CLASS>  (1282) 
alpha

>  <ANALOG>  (1282) 
Phe

>  <MOL_WT>  (1282) 
217.62699999999998

>  <LOGP>  (1282) 
1.4335000000000002

>  <TPSA>  (1282) 
63.32000000000001

>  <POPULARITY>  (1282) 
5.3

>  <PROTECTED>  (1282) 
TRUE

>  <SMILES>  (1282) 
N[C@@H](Cc1(ccc(Cl)cc1F))C(=O)O

>  <INCHIKEY>  (1282) 
ZPMGQOHZMMWUAT-QMMMGPOBSA-N

$$$$
Cys_Ph
     RDKit          2D

 13 13  0  0  0  0  0  0  0  0999 V2000
   -2.6715   -1.9340    0.0000 N   0  0  0  0  0  0  0  0  0  0  0  0
   -2.4130   -0.4565    0.0000 C   0  0  0  0  0  0  0  0  0  0  0  0
   -1.0042    0.0585    0.0000 C   0  0  0  0  0  0  0  0  0  0  0  0
    0.1462   -0.9041    0.0000 S   0  0  0  0  0  0  0  0  0  0  0  0
    1.5550   -0.3891    0.0000 C   0  0  0  0  0  0  0  0  0  0  0  0
    1.8135    1.0885    0.0000 C   0  0  0  0  0  0  0  0  0  0  0  0
    3.2223    1.6034    0.0000 C   0  0  0  0  0  0  0  0  0  0  0  0
    4.3727    0.6408    0.0000 C   0  0  0  0  0  0  0  0  0  0  0  0
    4.1143   -0.8367    0.0000 C   0  0  0  0  0  0  0  0  0  0  0  0
    2.7054   -1.3517    0.0000 C   0  0  0  0  0  0  0  0  0  0  0  0
   -3.5634    0.5061    0.0000 C   0  0  0  0  0  0  0  0  0  0  0  0
   -3.3050    1.9837    0.0000 O   0  0  0  0  0  0  0  0  0  0  0  0
   -4.9723   -0.0089    0.0000 O   0  0  0  0  0  0  0  0  0  0  0  0
  2  1  1  6
  2  3  1  0
  3  4  1  0
  4  5  1  0
  5  6  2  0
  6  7  1  0
  7  8  2  0
  8  9  1  0
  9 10  2  0
  2 11  1  0
 11 12  2  0
 11 13  1  0
 10  5  1  0
M  END
>  <rName>  (1283) 
Cys_Ph

>  <PQ_SYMBOL>  (1283) 
Cys_Ph

>  <FULL_NAME>  (1283) 
S-phenyl-L-cysteine

>  <IUPAC_CONDENSED>  (1283) 
Cys(Ph)

>  <IUPAC>  (1283) 
(2R)-2-amino-3-(phenylsulfanyl)propanoic acid

>  <TYPE>  (1283) 
Backbone

>  <CLASS>  (1283) 
alpha

>  <ANALOG>  (1283) 
Cys

>  <MOL_WT>  (1283) 
197.259

>  <LOGP>  (1283) 
1.1906

>  <TPSA>  (1283) 
63.32000000000001

>  <POPULARITY>  (1283) 
8

>  <PROTECTED>  (1283) 
TRUE

>  <SMILES>  (1283) 
N[C@@H](CSc1(ccccc1))C(=O)O

>  <INCHIKEY>  (1283) 
XYUBQWNJDIAEES-QMMMGPOBSA-N

$$$$
Trp_4OMe
     RDKit          2D

 17 18  0  0  0  0  0  0  0  0999 V2000
   -2.9481   -1.8518    0.0000 N   0  0  0  0  0  0  0  0  0  0  0  0
   -2.7536   -0.3645    0.0000 C   0  0  0  0  0  0  0  0  0  0  0  0
   -1.3682    0.2107    0.0000 C   0  0  0  0  0  0  0  0  0  0  0  0
   -0.1774   -0.7015    0.0000 C   0  0  0  0  0  0  0  0  0  0  0  0
   -0.2155   -2.2010    0.0000 C   0  0  0  0  0  0  0  0  0  0  0  0
    1.1989   -2.7006    0.0000 N   0  0  0  0  0  0  0  0  0  0  0  0
    2.1111   -1.5098    0.0000 C   0  0  0  0  0  0  0  0  0  0  0  0
    3.6063   -1.3909    0.0000 C   0  0  0  0  0  0  0  0  0  0  0  0
    4.2510   -0.0364    0.0000 C   0  0  0  0  0  0  0  0  0  0  0  0
    3.4004    1.1990    0.0000 C   0  0  0  0  0  0  0  0  0  0  0  0
    1.9051    1.0801    0.0000 C   0  0  0  0  0  0  0  0  0  0  0  0
    1.0545    2.3156    0.0000 O   0  0  0  0  0  0  0  0  0  0  0  0
    1.6991    3.6700    0.0000 C   0  0  0  0  0  0  0  0  0  0  0  0
    1.2604   -0.2743    0.0000 C   0  0  0  0  0  0  0  0  0  0  0  0
   -3.9444    0.5477    0.0000 C   0  0  0  0  0  0  0  0  0  0  0  0
   -3.7498    2.0350    0.0000 O   0  0  0  0  0  0  0  0  0  0  0  0
   -5.3297   -0.0275    0.0000 O   0  0  0  0  0  0  0  0  0  0  0  0
  2  1  1  6
  2  3  1  0
  3  4  1  0
  4  5  2  0
  5  6  1  0
  6  7  1  0
  7  8  2  0
  8  9  1  0
  9 10  2  0
 10 11  1  0
 11 12  1  0
 12 13  1  0
 11 14  2  0
  2 15  1  0
 15 16  2  0
 15 17  1  0
 14  4  1  0
 14  7  1  0
M  END
>  <rName>  (1284) 
Trp_4OMe

>  <PQ_SYMBOL>  (1284) 
Trp_4OMe

>  <FULL_NAME>  (1284) 
4-methoxy-L-tryptophan

>  <IUPAC_CONDENSED>  (1284) 
Trp(4-OMe)

>  <IUPAC>  (1284) 
(2S)-2-amino-3-(4-methoxy-1H-indol-3-yl)propanoic acid

>  <TYPE>  (1284) 
Backbone

>  <CLASS>  (1284) 
alpha

>  <ANALOG>  (1284) 
Trp

>  <MOL_WT>  (1284) 
234.25499999999997

>  <LOGP>  (1284) 
1.1309

>  <TPSA>  (1284) 
88.34000000000002

>  <POPULARITY>  (1284) 
6.1

>  <PROTECTED>  (1284) 
TRUE

>  <SMILES>  (1284) 
N[C@@H](Cc1(c[nH]c2(cccc(OC)c12)))C(=O)O

>  <INCHIKEY>  (1284) 
VYXPKRIKQJEAOO-QMMMGPOBSA-N

$$$$
Trp_56diCl
     RDKit          2D

 17 18  0  0  0  0  0  0  0  0999 V2000
    3.4017    1.5718    0.0000 N   0  0  0  0  0  0  0  0  0  0  0  0
    3.1707    0.0897    0.0000 C   0  0  0  0  0  0  0  0  0  0  0  0
    1.7717   -0.4513    0.0000 C   0  0  0  0  0  0  0  0  0  0  0  0
    0.6036    0.4898    0.0000 C   0  0  0  0  0  0  0  0  0  0  0  0
    0.6784    1.9879    0.0000 C   0  0  0  0  0  0  0  0  0  0  0  0
   -0.7233    2.5220    0.0000 N   0  0  0  0  0  0  0  0  0  0  0  0
   -1.6644    1.3540    0.0000 C   0  0  0  0  0  0  0  0  0  0  0  0
   -3.1621    1.2718    0.0000 C   0  0  0  0  0  0  0  0  0  0  0  0
   -3.8398   -0.0664    0.0000 C   0  0  0  0  0  0  0  0  0  0  0  0
   -5.3375   -0.1486    0.0000 Cl  0  0  0  0  0  0  0  0  0  0  0  0
   -3.0197   -1.3224    0.0000 C   0  0  0  0  0  0  0  0  0  0  0  0
   -3.6974   -2.6606    0.0000 Cl  0  0  0  0  0  0  0  0  0  0  0  0
   -1.5220   -1.2402    0.0000 C   0  0  0  0  0  0  0  0  0  0  0  0
   -0.8443    0.0980    0.0000 C   0  0  0  0  0  0  0  0  0  0  0  0
    4.3388   -0.8514    0.0000 C   0  0  0  0  0  0  0  0  0  0  0  0
    4.1078   -2.3335    0.0000 O   0  0  0  0  0  0  0  0  0  0  0  0
    5.7378   -0.3104    0.0000 O   0  0  0  0  0  0  0  0  0  0  0  0
  2  1  1  6
  2  3  1  0
  3  4  1  0
  4  5  2  0
  5  6  1  0
  6  7  1  0
  7  8  2  0
  8  9  1  0
  9 10  1  0
  9 11  2  0
 11 12  1  0
 11 13  1  0
 13 14  2  0
  2 15  1  0
 15 16  2  0
 15 17  1  0
 14  4  1  0
 14  7  1  0
M  END
>  <rName>  (1285) 
Trp_56diCl

>  <PQ_SYMBOL>  (1285) 
Trp_56diCl

>  <FULL_NAME>  (1285) 
5,6-dichloro-L-tryptophan

>  <IUPAC_CONDENSED>  (1285) 
Trp(5,6-diCl)

>  <IUPAC>  (1285) 
(2S)-2-amino-3-(5,6-dichloro-1H-indol-3-yl)propanoic acid

>  <TYPE>  (1285) 
Backbone

>  <CLASS>  (1285) 
alpha

>  <ANALOG>  (1285) 
Trp

>  <MOL_WT>  (1285) 
273.11899999999997

>  <LOGP>  (1285) 
2.4291

>  <TPSA>  (1285) 
79.11

>  <POPULARITY>  (1285) 
4

>  <PROTECTED>  (1285) 
TRUE

>  <SMILES>  (1285) 
N[C@@H](Cc1(c[nH]c2(cc(Cl)c(Cl)cc12)))C(=O)O

>  <INCHIKEY>  (1285) 
PZPMDEQRXQHVJZ-VIFPVBQESA-N

$$$$
Trp_5CN
     RDKit          2D

 17 18  0  0  0  0  0  0  0  0999 V2000
   -3.5618   -1.3180    0.0000 N   0  0  0  0  0  0  0  0  0  0  0  0
   -3.1279    0.1179    0.0000 C   0  0  0  0  0  0  0  0  0  0  0  0
   -1.6674    0.4601    0.0000 C   0  0  0  0  0  0  0  0  0  0  0  0
   -0.6409   -0.6337    0.0000 C   0  0  0  0  0  0  0  0  0  0  0  0
   -0.9223   -2.1070    0.0000 C   0  0  0  0  0  0  0  0  0  0  0  0
    0.3919   -2.8300    0.0000 N   0  0  0  0  0  0  0  0  0  0  0  0
    1.4857   -1.8034    0.0000 C   0  0  0  0  0  0  0  0  0  0  0  0
    2.9804   -1.9293    0.0000 C   0  0  0  0  0  0  0  0  0  0  0  0
    3.8367   -0.6978    0.0000 C   0  0  0  0  0  0  0  0  0  0  0  0
    3.1984    0.6596    0.0000 C   0  0  0  0  0  0  0  0  0  0  0  0
    4.0548    1.8911    0.0000 C   0  0  0  0  0  0  0  0  0  0  0  0
    4.9112    3.1226    0.0000 N   0  0  0  0  0  0  0  0  0  0  0  0
    1.7037    0.7855    0.0000 C   0  0  0  0  0  0  0  0  0  0  0  0
    0.8473   -0.4460    0.0000 C   0  0  0  0  0  0  0  0  0  0  0  0
   -4.1544    1.2116    0.0000 C   0  0  0  0  0  0  0  0  0  0  0  0
   -3.7205    2.6475    0.0000 O   0  0  0  0  0  0  0  0  0  0  0  0
   -5.6149    0.8695    0.0000 O   0  0  0  0  0  0  0  0  0  0  0  0
  2  1  1  6
  2  3  1  0
  3  4  1  0
  4  5  2  0
  5  6  1  0
  6  7  1  0
  7  8  1  0
  8  9  2  0
  9 10  1  0
 10 11  1  0
 11 12  3  0
 10 13  2  0
 13 14  1  0
  2 15  1  0
 15 16  2  0
 15 17  1  0
 14  4  1  0
 14  7  2  0
M  END
>  <rName>  (1286) 
Trp_5CN

>  <PQ_SYMBOL>  (1286) 
Trp_5CN

>  <FULL_NAME>  (1286) 
5-cyano-L-tryptophan

>  <IUPAC_CONDENSED>  (1286) 
Trp(5-CN)

>  <IUPAC>  (1286) 
(2S)-2-amino-3-(5-(nitrilomethyl)-1H-indol-3-yl)propanoic acid

>  <TYPE>  (1286) 
Backbone

>  <CLASS>  (1286) 
alpha

>  <ANALOG>  (1286) 
Trp

>  <MOL_WT>  (1286) 
229.23899999999998

>  <LOGP>  (1286) 
0.9939800000000003

>  <TPSA>  (1286) 
102.89999999999999

>  <POPULARITY>  (1286) 
4.2

>  <PROTECTED>  (1286) 
TRUE

>  <SMILES>  (1286) 
N[C@@H](Cc1(c[nH]c2(ccc(C#N)cc12)))C(=O)O

>  <INCHIKEY>  (1286) 
RWUVZHFIVNNDBO-JTQLQIEISA-N

$$$$
Trp_6NO2
     RDKit          2D

 18 19  0  0  0  0  0  0  0  0999 V2000
   -3.8235   -1.5704    0.0000 N   0  0  0  0  0  0  0  0  0  0  0  0
   -3.6408   -0.0815    0.0000 C   0  0  0  0  0  0  0  0  0  0  0  0
   -2.2602    0.5047    0.0000 C   0  0  0  0  0  0  0  0  0  0  0  0
   -1.0621   -0.3978    0.0000 C   0  0  0  0  0  0  0  0  0  0  0  0
   -1.0881   -1.8976    0.0000 C   0  0  0  0  0  0  0  0  0  0  0  0
    0.3303   -2.3858    0.0000 N   0  0  0  0  0  0  0  0  0  0  0  0
    1.2328   -1.1877    0.0000 C   0  0  0  0  0  0  0  0  0  0  0  0
    2.7271   -1.0568    0.0000 C   0  0  0  0  0  0  0  0  0  0  0  0
    3.3609    0.3027    0.0000 C   0  0  0  0  0  0  0  0  0  0  0  0
    2.5003    1.5314    0.0000 C   0  0  0  0  0  0  0  0  0  0  0  0
    1.0061    1.4004    0.0000 C   0  0  0  0  0  0  0  0  0  0  0  0
    0.3723    0.0409    0.0000 C   0  0  0  0  0  0  0  0  0  0  0  0
    4.8551    0.4337    0.0000 N   0  0  0  0  0  0  0  0  0  0  0  0
    5.4889    1.7932    0.0000 O   0  0  0  0  0  0  0  0  0  0  0  0
    5.7157   -0.7950    0.0000 O   0  0  0  0  0  0  0  0  0  0  0  0
   -4.8389    0.8210    0.0000 C   0  0  0  0  0  0  0  0  0  0  0  0
   -4.6563    2.3099    0.0000 O   0  0  0  0  0  0  0  0  0  0  0  0
   -6.2196    0.2348    0.0000 O   0  0  0  0  0  0  0  0  0  0  0  0
  2  1  1  6
  2  3  1  0
  3  4  1  0
  4  5  2  0
  5  6  1  0
  6  7  1  0
  7  8  1  0
  8  9  2  0
  9 10  1  0
 10 11  2  0
 11 12  1  0
  9 13  1  0
 13 14  2  0
 13 15  1  0
  2 16  1  0
 16 17  2  0
 16 18  1  0
 12  4  1  0
 12  7  2  0
M  CHG  2  13   1  15  -1
M  END
>  <rName>  (1287) 
Trp_6NO2

>  <PQ_SYMBOL>  (1287) 
Trp_6NO2

>  <FULL_NAME>  (1287) 
6-nitro-L-tryptophan

>  <IUPAC_CONDENSED>  (1287) 
Trp(6-NO2)

>  <IUPAC>  (1287) 
(2S)-2-amino-3-(6-nitro-1H-indol-3-yl)propanoic acid

>  <TYPE>  (1287) 
Backbone

>  <CLASS>  (1287) 
alpha

>  <ANALOG>  (1287) 
Trp

>  <MOL_WT>  (1287) 
249.22599999999997

>  <LOGP>  (1287) 
1.0305

>  <TPSA>  (1287) 
122.25000000000001

>  <POPULARITY>  (1287) 
4.9

>  <PROTECTED>  (1287) 
TRUE

>  <SMILES>  (1287) 
N[C@@H](Cc1(c[nH]c2(cc(ccc12)[N+](=O)[O-])))C(=O)O

>  <INCHIKEY>  (1287) 
AWLWPSSHYJQPCH-VIFPVBQESA-N

$$$$
Trp_7OMe
     RDKit          2D

 17 18  0  0  0  0  0  0  0  0999 V2000
   -3.1040   -1.8301    0.0000 N   0  0  0  0  0  0  0  0  0  0  0  0
   -3.1997   -0.3332    0.0000 C   0  0  0  0  0  0  0  0  0  0  0  0
   -1.9511    0.4982    0.0000 C   0  0  0  0  0  0  0  0  0  0  0  0
   -0.6069   -0.1675    0.0000 C   0  0  0  0  0  0  0  0  0  0  0  0
   -0.3553   -1.6462    0.0000 C   0  0  0  0  0  0  0  0  0  0  0  0
    1.1288   -1.8639    0.0000 N   0  0  0  0  0  0  0  0  0  0  0  0
    1.7945   -0.5197    0.0000 C   0  0  0  0  0  0  0  0  0  0  0  0
    3.2388   -0.1149    0.0000 C   0  0  0  0  0  0  0  0  0  0  0  0
    4.3116   -1.1633    0.0000 O   0  0  0  0  0  0  0  0  0  0  0  0
    5.7559   -0.7585    0.0000 C   0  0  0  0  0  0  0  0  0  0  0  0
    3.6104    1.3384    0.0000 C   0  0  0  0  0  0  0  0  0  0  0  0
    2.5377    2.3868    0.0000 C   0  0  0  0  0  0  0  0  0  0  0  0
    1.0933    1.9820    0.0000 C   0  0  0  0  0  0  0  0  0  0  0  0
    0.7217    0.5288    0.0000 C   0  0  0  0  0  0  0  0  0  0  0  0
   -4.5439    0.3325    0.0000 C   0  0  0  0  0  0  0  0  0  0  0  0
   -4.6396    1.8294    0.0000 O   0  0  0  0  0  0  0  0  0  0  0  0
   -5.7925   -0.4988    0.0000 O   0  0  0  0  0  0  0  0  0  0  0  0
  2  1  1  6
  2  3  1  0
  3  4  1  0
  4  5  2  0
  5  6  1  0
  6  7  1  0
  7  8  2  0
  8  9  1  0
  9 10  1  0
  8 11  1  0
 11 12  2  0
 12 13  1  0
 13 14  2  0
  2 15  1  0
 15 16  2  0
 15 17  1  0
 14  4  1  0
 14  7  1  0
M  END
>  <rName>  (1288) 
Trp_7OMe

>  <PQ_SYMBOL>  (1288) 
Trp_7OMe

>  <FULL_NAME>  (1288) 
7-methoxy-L-tryptophan

>  <IUPAC_CONDENSED>  (1288) 
Trp(7-OMe)

>  <IUPAC>  (1288) 
(2S)-2-amino-3-(7-methoxy-1H-indol-3-yl)propanoic acid

>  <TYPE>  (1288) 
Backbone

>  <CLASS>  (1288) 
alpha

>  <ANALOG>  (1288) 
Trp

>  <MOL_WT>  (1288) 
234.255

>  <LOGP>  (1288) 
1.1309

>  <TPSA>  (1288) 
88.34000000000002

>  <POPULARITY>  (1288) 
4.7

>  <PROTECTED>  (1288) 
TRUE

>  <SMILES>  (1288) 
N[C@@H](Cc1(c[nH]c2(c(OC)cccc12)))C(=O)O

>  <INCHIKEY>  (1288) 
MUZROTSTMQSBFK-VIFPVBQESA-N

$$$$
NMe-Trp_Me
     RDKit          2D

 17 18  0  0  0  0  0  0  0  0999 V2000
   -2.5274   -1.3240    0.0000 N   0  0  0  0  0  0  0  0  0  0  0  0
   -3.8612   -2.0101    0.0000 C   0  0  0  0  0  0  0  0  0  0  0  0
   -2.4547    0.1743    0.0000 C   0  0  0  0  0  0  0  0  0  0  0  0
   -1.1209    0.8605    0.0000 C   0  0  0  0  0  0  0  0  0  0  0  0
    0.1403    0.0484    0.0000 C   0  0  0  0  0  0  0  0  0  0  0  0
    0.2246   -1.4492    0.0000 C   0  0  0  0  0  0  0  0  0  0  0  0
    1.6750   -1.8318    0.0000 N   0  0  0  0  0  0  0  0  0  0  0  0
    2.2180   -3.2301    0.0000 C   0  0  0  0  0  0  0  0  0  0  0  0
    2.4871   -0.5706    0.0000 C   0  0  0  0  0  0  0  0  0  0  0  0
    3.9677   -0.3302    0.0000 C   0  0  0  0  0  0  0  0  0  0  0  0
    4.4998    1.0722    0.0000 C   0  0  0  0  0  0  0  0  0  0  0  0
    3.5513    2.2343    0.0000 C   0  0  0  0  0  0  0  0  0  0  0  0
    2.0707    1.9939    0.0000 C   0  0  0  0  0  0  0  0  0  0  0  0
    1.5386    0.5914    0.0000 C   0  0  0  0  0  0  0  0  0  0  0  0
   -3.7159    0.9863    0.0000 C   0  0  0  0  0  0  0  0  0  0  0  0
   -3.6432    2.4846    0.0000 O   0  0  0  0  0  0  0  0  0  0  0  0
   -5.0497    0.3002    0.0000 O   0  0  0  0  0  0  0  0  0  0  0  0
  1  2  1  0
  1  3  1  0
  3  4  1  6
  4  5  1  0
  5  6  2  0
  6  7  1  0
  7  8  1  0
  7  9  1  0
  9 10  2  0
 10 11  1  0
 11 12  2  0
 12 13  1  0
 13 14  2  0
  3 15  1  0
 15 16  2  0
 15 17  1  0
 14  5  1  0
 14  9  1  0
M  END
>  <rName>  (1289) 
NMe-Trp_Me

>  <PQ_SYMBOL>  (1289) 
NMe-Trp_Me

>  <FULL_NAME>  (1289) 
N-methyl-1-methyl-L-tryptophan

>  <IUPAC_CONDENSED>  (1289) 
Me-Trp(Me)

>  <IUPAC>  (1289) 
(2S)-3-(1-methyl-1H-indol-3-yl)-2-(methylamino)propanoic acid

>  <TYPE>  (1289) 
Backbone

>  <CLASS>  (1289) 
alpha

>  <ANALOG>  (1289) 
Trp

>  <MOL_WT>  (1289) 
232.28300000000002

>  <LOGP>  (1289) 
1.3934

>  <TPSA>  (1289) 
54.260000000000005

>  <POPULARITY>  (1289) 
8.1

>  <PROTECTED>  (1289) 
TRUE

>  <SMILES>  (1289) 
N(C)[C@@H](Cc1(cn(C)c2(ccccc12)))C(=O)O

>  <INCHIKEY>  (1289) 
LLXSARQPJDZTPZ-NSHDSACASA-N

$$$$
Tyr_2F
     RDKit          2D

 14 14  0  0  0  0  0  0  0  0999 V2000
   -1.7174    1.8436    0.0000 N   0  0  0  0  0  0  0  0  0  0  0  0
   -2.1036    0.3942    0.0000 C   0  0  0  0  0  0  0  0  0  0  0  0
   -1.0414   -0.6650    0.0000 C   0  0  0  0  0  0  0  0  0  0  0  0
    0.4069   -0.2747    0.0000 C   0  0  0  0  0  0  0  0  0  0  0  0
    0.7931    1.1747    0.0000 C   0  0  0  0  0  0  0  0  0  0  0  0
    2.2415    1.5649    0.0000 C   0  0  0  0  0  0  0  0  0  0  0  0
    3.3036    0.5057    0.0000 C   0  0  0  0  0  0  0  0  0  0  0  0
    4.7520    0.8960    0.0000 O   0  0  0  0  0  0  0  0  0  0  0  0
    2.9174   -0.9437    0.0000 C   0  0  0  0  0  0  0  0  0  0  0  0
    1.4691   -1.3339    0.0000 C   0  0  0  0  0  0  0  0  0  0  0  0
    1.0829   -2.7834    0.0000 F   0  0  0  0  0  0  0  0  0  0  0  0
   -3.5519    0.0039    0.0000 C   0  0  0  0  0  0  0  0  0  0  0  0
   -3.9381   -1.4455    0.0000 O   0  0  0  0  0  0  0  0  0  0  0  0
   -4.6140    1.0631    0.0000 O   0  0  0  0  0  0  0  0  0  0  0  0
  2  1  1  1
  2  3  1  0
  3  4  1  0
  4  5  1  0
  5  6  2  0
  6  7  1  0
  7  8  1  0
  7  9  2  0
  9 10  1  0
 10 11  1  0
  2 12  1  0
 12 13  2  0
 12 14  1  0
 10  4  2  0
M  END
>  <rName>  (1290) 
Tyr_2F

>  <PQ_SYMBOL>  (1290) 
Tyr_2F

>  <FULL_NAME>  (1290) 
2-fluoro-L-tyrosine

>  <IUPAC_CONDENSED>  (1290) 
Tyr(2-F)

>  <IUPAC>  (1290) 
(2S)-2-amino-3-(2-fluoro-4-hydroxyphenyl)propanoic acid

>  <TYPE>  (1290) 
Backbone

>  <CLASS>  (1290) 
alpha

>  <ANALOG>  (1290) 
Tyr

>  <MOL_WT>  (1290) 
199.18099999999995

>  <LOGP>  (1290) 
0.48570000000000013

>  <TPSA>  (1290) 
83.55

>  <POPULARITY>  (1290) 
8.4

>  <PROTECTED>  (1290) 
TRUE

>  <SMILES>  (1290) 
N[C@@H](Cc1(ccc(O)cc1F))C(=O)O

>  <INCHIKEY>  (1290) 
WEJIXBMNLWITCR-QMMMGPOBSA-N

$$$$
Phe_4Oprop2ynyl
     RDKit          2D

 16 16  0  0  0  0  0  0  0  0999 V2000
   -2.9780    1.6873    0.0000 N   0  0  0  0  0  0  0  0  0  0  0  0
   -3.3933    0.2460    0.0000 C   0  0  0  0  0  0  0  0  0  0  0  0
   -2.3527   -0.8344    0.0000 C   0  0  0  0  0  0  0  0  0  0  0  0
   -0.8968   -0.4733    0.0000 C   0  0  0  0  0  0  0  0  0  0  0  0
   -0.4815    0.9680    0.0000 C   0  0  0  0  0  0  0  0  0  0  0  0
    0.9744    1.3291    0.0000 C   0  0  0  0  0  0  0  0  0  0  0  0
    2.0150    0.2487    0.0000 C   0  0  0  0  0  0  0  0  0  0  0  0
    3.4709    0.6098    0.0000 O   0  0  0  0  0  0  0  0  0  0  0  0
    4.5115   -0.4706    0.0000 C   0  0  0  0  0  0  0  0  0  0  0  0
    5.9674   -0.1095    0.0000 C   0  0  0  0  0  0  0  0  0  0  0  0
    7.4233    0.2515    0.0000 C   0  0  0  0  0  0  0  0  0  0  0  0
    1.5997   -1.1926    0.0000 C   0  0  0  0  0  0  0  0  0  0  0  0
    0.1438   -1.5537    0.0000 C   0  0  0  0  0  0  0  0  0  0  0  0
   -4.8492   -0.1151    0.0000 C   0  0  0  0  0  0  0  0  0  0  0  0
   -5.2645   -1.5564    0.0000 O   0  0  0  0  0  0  0  0  0  0  0  0
   -5.8899    0.9653    0.0000 O   0  0  0  0  0  0  0  0  0  0  0  0
  2  1  1  1
  2  3  1  0
  3  4  1  0
  4  5  1  0
  5  6  2  0
  6  7  1  0
  7  8  1  0
  8  9  1  0
  9 10  1  0
 10 11  3  0
  7 12  2  0
 12 13  1  0
  2 14  1  0
 14 15  2  0
 14 16  1  0
 13  4  2  0
M  END
>  <rName>  (1291) 
Phe_4Oprop2ynyl

>  <PQ_SYMBOL>  (1291) 
Phe_4Oprop2ynyl

>  <FULL_NAME>  (1291) 
O-propargyl-L-tyrosine

>  <IUPAC_CONDENSED>  (1291) 
Tyr(prop-2-ynyl)

>  <IUPAC>  (1291) 
(2S)-2-amino-3-(4-((prop-2-yn-1-yl)oxy)phenyl)propanoic acid

>  <TYPE>  (1291) 
Backbone

>  <CLASS>  (1291) 
alpha

>  <ANALOG>  (1291) 
Tyr

>  <MOL_WT>  (1291) 
219.23999999999998

>  <LOGP>  (1291) 
0.653

>  <TPSA>  (1291) 
72.55

>  <POPULARITY>  (1291) 
6.3

>  <PROTECTED>  (1291) 
TRUE

>  <SMILES>  (1291) 
N[C@@H](Cc1(ccc(OCC#C)cc1))C(=O)O

>  <INCHIKEY>  (1291) 
JSXMFBNJRFXRCX-NSHDSACASA-N

$$$$
Nva_ethynyl
     RDKit          2D

 10  9  0  0  0  0  0  0  0  0999 V2000
   -1.2340   -1.8694    0.0000 N   0  0  0  0  0  0  0  0  0  0  0  0
   -1.3962   -0.3782    0.0000 C   0  0  0  0  0  0  0  0  0  0  0  0
   -0.1859    0.5079    0.0000 C   0  0  0  0  0  0  0  0  0  0  0  0
    1.1866   -0.0973    0.0000 C   0  0  0  0  0  0  0  0  0  0  0  0
    2.3969    0.7888    0.0000 C   0  0  0  0  0  0  0  0  0  0  0  0
    3.7695    0.1837    0.0000 C   0  0  0  0  0  0  0  0  0  0  0  0
    5.1420   -0.4214    0.0000 C   0  0  0  0  0  0  0  0  0  0  0  0
   -2.7688    0.2269    0.0000 C   0  0  0  0  0  0  0  0  0  0  0  0
   -2.9310    1.7181    0.0000 O   0  0  0  0  0  0  0  0  0  0  0  0
   -3.9791   -0.6591    0.0000 O   0  0  0  0  0  0  0  0  0  0  0  0
  2  1  1  6
  2  3  1  0
  3  4  1  0
  4  5  1  0
  5  6  1  0
  6  7  3  0
  2  8  1  0
  8  9  2  0
  8 10  1  0
M  END
>  <rName>  (1292) 
Nva_ethynyl

>  <PQ_SYMBOL>  (1292) 
Nva_ethynyl

>  <FULL_NAME>  (1292) 
(S)-2-aminohept-6-ynoic acid

>  <IUPAC_CONDENSED>  (1292) 
Nva(ethynyl)

>  <IUPAC>  (1292) 
(2S)-2-aminohept-6-ynoic acid

>  <TYPE>  (1292) 
Backbone

>  <CLASS>  (1292) 
alpha

>  <ANALOG>  (1292) 
Leu

>  <MOL_WT>  (1292) 
141.17

>  <LOGP>  (1292) 
0.20179999999999992

>  <TPSA>  (1292) 
63.32000000000001

>  <POPULARITY>  (1292) 
6.8

>  <PROTECTED>  (1292) 
TRUE

>  <SMILES>  (1292) 
N[C@@H](CCCC#C)C(=O)O

>  <INCHIKEY>  (1292) 
IJQLLGJUHGAQIC-LURJTMIESA-N

$$$$
Phg_2OMe
     RDKit          2D

 13 13  0  0  0  0  0  0  0  0999 V2000
   -1.1420   -2.1120    0.0000 N   0  0  0  0  0  0  0  0  0  0  0  0
   -1.2559   -0.6164    0.0000 C   0  0  0  0  0  0  0  0  0  0  0  0
   -0.0175    0.2301    0.0000 C   0  0  0  0  0  0  0  0  0  0  0  0
   -0.1314    1.7258    0.0000 C   0  0  0  0  0  0  0  0  0  0  0  0
    1.1069    2.5722    0.0000 C   0  0  0  0  0  0  0  0  0  0  0  0
    2.4592    1.9230    0.0000 C   0  0  0  0  0  0  0  0  0  0  0  0
    2.5731    0.4274    0.0000 C   0  0  0  0  0  0  0  0  0  0  0  0
    1.3347   -0.4191    0.0000 C   0  0  0  0  0  0  0  0  0  0  0  0
    1.4486   -1.9148    0.0000 O   0  0  0  0  0  0  0  0  0  0  0  0
    2.8008   -2.5640    0.0000 C   0  0  0  0  0  0  0  0  0  0  0  0
   -2.6081    0.0328    0.0000 C   0  0  0  0  0  0  0  0  0  0  0  0
   -2.7220    1.5285    0.0000 O   0  0  0  0  0  0  0  0  0  0  0  0
   -3.8464   -0.8136    0.0000 O   0  0  0  0  0  0  0  0  0  0  0  0
  2  1  1  6
  2  3  1  0
  3  4  2  0
  4  5  1  0
  5  6  2  0
  6  7  1  0
  7  8  2  0
  8  9  1  0
  9 10  1  0
  2 11  1  0
 11 12  2  0
 11 13  1  0
  8  3  1  0
M  END
>  <rName>  (1293) 
Phg_2OMe

>  <PQ_SYMBOL>  (1293) 
Phg_2OMe

>  <FULL_NAME>  (1293) 
(S)-2-amino-2-(2-methoxyphenyl)acetic acid

>  <IUPAC_CONDENSED>  (1293) 
Phg(2-OMe)

>  <IUPAC>  (1293) 
(2S)-2-amino-2-(2-methoxyphenyl)acetic acid

>  <TYPE>  (1293) 
Backbone

>  <CLASS>  (1293) 
alpha

>  <ANALOG>  (1293) 
X

>  <MOL_WT>  (1293) 
181.19099999999997

>  <LOGP>  (1293) 
0.7796000000000001

>  <TPSA>  (1293) 
72.55

>  <POPULARITY>  (1293) 
7.5

>  <PROTECTED>  (1293) 
TRUE

>  <SMILES>  (1293) 
N[C@@H](c1(ccccc1OC))C(=O)O

>  <INCHIKEY>  (1293) 
DQSACLYOIBPCJU-QMMMGPOBSA-N

$$$$
D-Nva_ethynyl
     RDKit          2D

 10  9  0  0  0  0  0  0  0  0999 V2000
   -1.2340   -1.8694    0.0000 N   0  0  0  0  0  0  0  0  0  0  0  0
   -1.3962   -0.3782    0.0000 C   0  0  0  0  0  0  0  0  0  0  0  0
   -0.1859    0.5079    0.0000 C   0  0  0  0  0  0  0  0  0  0  0  0
    1.1866   -0.0973    0.0000 C   0  0  0  0  0  0  0  0  0  0  0  0
    2.3969    0.7888    0.0000 C   0  0  0  0  0  0  0  0  0  0  0  0
    3.7695    0.1837    0.0000 C   0  0  0  0  0  0  0  0  0  0  0  0
    5.1420   -0.4214    0.0000 C   0  0  0  0  0  0  0  0  0  0  0  0
   -2.7688    0.2269    0.0000 C   0  0  0  0  0  0  0  0  0  0  0  0
   -2.9310    1.7181    0.0000 O   0  0  0  0  0  0  0  0  0  0  0  0
   -3.9791   -0.6591    0.0000 O   0  0  0  0  0  0  0  0  0  0  0  0
  2  1  1  1
  2  3  1  0
  3  4  1  0
  4  5  1  0
  5  6  1  0
  6  7  3  0
  2  8  1  0
  8  9  2  0
  8 10  1  0
M  END
>  <rName>  (1294) 
D-Nva_ethynyl

>  <PQ_SYMBOL>  (1294) 
D-Nva_ethynyl

>  <FULL_NAME>  (1294) 
(R)-2-aminohept-6-ynoic acid

>  <IUPAC_CONDENSED>  (1294) 
D-Nva(ethynyl)

>  <IUPAC>  (1294) 
(2R)-2-aminohept-6-ynoic acid

>  <TYPE>  (1294) 
Backbone

>  <CLASS>  (1294) 
alpha

>  <ANALOG>  (1294) 
Leu

>  <MOL_WT>  (1294) 
141.17

>  <LOGP>  (1294) 
0.20179999999999992

>  <TPSA>  (1294) 
63.32000000000001

>  <POPULARITY>  (1294) 
4

>  <PROTECTED>  (1294) 
TRUE

>  <SMILES>  (1294) 
N[C@H](CCCC#C)C(=O)O

>  <INCHIKEY>  (1294) 
IJQLLGJUHGAQIC-ZCFIWIBFSA-N

$$$$
aMePra
     RDKit          2D

  9  8  0  0  0  0  0  0  0  0999 V2000
    0.8332    1.4497    0.0000 N   0  0  0  0  0  0  0  0  0  0  0  0
   -0.3210    0.4916    0.0000 C   0  0  0  0  0  0  0  0  0  0  0  0
   -1.2791    1.6458    0.0000 C   0  0  0  0  0  0  0  0  0  0  0  0
    0.6370   -0.6626    0.0000 C   0  0  0  0  0  0  0  0  0  0  0  0
    2.1156   -0.4100    0.0000 C   0  0  0  0  0  0  0  0  0  0  0  0
    3.5942   -0.1574    0.0000 C   0  0  0  0  0  0  0  0  0  0  0  0
   -1.4752   -0.4664    0.0000 C   0  0  0  0  0  0  0  0  0  0  0  0
   -2.8820    0.0541    0.0000 O   0  0  0  0  0  0  0  0  0  0  0  0
   -1.2226   -1.9450    0.0000 O   0  0  0  0  0  0  0  0  0  0  0  0
  1  2  1  0
  2  3  1  6
  2  4  1  0
  4  5  1  0
  5  6  3  0
  2  7  1  0
  7  8  2  0
  7  9  1  0
M  END
>  <rName>  (1295) 
aMePra

>  <PQ_SYMBOL>  (1295) 
aMePra

>  <FULL_NAME>  (1295) 
(S)-2-amino-2-methylpent-4-ynoic acid

>  <IUPAC_CONDENSED>  (1295) 
aMePra

>  <IUPAC>  (1295) 
(2S)-2-amino-2-methylpent-4-ynoic acid

>  <TYPE>  (1295) 
Backbone

>  <CLASS>  (1295) 
alpha

>  <ANALOG>  (1295) 
Leu

>  <MOL_WT>  (1295) 
127.14299999999997

>  <LOGP>  (1295) 
-0.18829999999999997

>  <TPSA>  (1295) 
63.32000000000001

>  <POPULARITY>  (1295) 
5.5

>  <PROTECTED>  (1295) 
TRUE

>  <SMILES>  (1295) 
N[C@@](C)(CC#C)C(=O)O

>  <INCHIKEY>  (1295) 
FSBNDYYRTZBHAN-LURJTMIESA-N

$$$$
D-aMePra
     RDKit          2D

  9  8  0  0  0  0  0  0  0  0999 V2000
    0.8332    1.4497    0.0000 N   0  0  0  0  0  0  0  0  0  0  0  0
   -0.3210    0.4916    0.0000 C   0  0  0  0  0  0  0  0  0  0  0  0
   -1.2791    1.6458    0.0000 C   0  0  0  0  0  0  0  0  0  0  0  0
    0.6370   -0.6626    0.0000 C   0  0  0  0  0  0  0  0  0  0  0  0
    2.1156   -0.4100    0.0000 C   0  0  0  0  0  0  0  0  0  0  0  0
    3.5942   -0.1574    0.0000 C   0  0  0  0  0  0  0  0  0  0  0  0
   -1.4752   -0.4664    0.0000 C   0  0  0  0  0  0  0  0  0  0  0  0
   -2.8820    0.0541    0.0000 O   0  0  0  0  0  0  0  0  0  0  0  0
   -1.2226   -1.9450    0.0000 O   0  0  0  0  0  0  0  0  0  0  0  0
  1  2  1  0
  2  3  1  1
  2  4  1  0
  4  5  1  0
  5  6  3  0
  2  7  1  0
  7  8  2  0
  7  9  1  0
M  END
>  <rName>  (1296) 
D-aMePra

>  <PQ_SYMBOL>  (1296) 
D-aMePra

>  <FULL_NAME>  (1296) 
(R)-2-amino-2-methylpent-4-ynoic acid

>  <IUPAC_CONDENSED>  (1296) 
D-aMePra

>  <IUPAC>  (1296) 
(2R)-2-amino-2-methylpent-4-ynoic acid

>  <TYPE>  (1296) 
Backbone

>  <CLASS>  (1296) 
alpha

>  <ANALOG>  (1296) 
Leu

>  <MOL_WT>  (1296) 
127.14299999999997

>  <LOGP>  (1296) 
-0.18829999999999997

>  <TPSA>  (1296) 
63.32000000000001

>  <POPULARITY>  (1296) 
7.1

>  <PROTECTED>  (1296) 
TRUE

>  <SMILES>  (1296) 
N[C@](C)(CC#C)C(=O)O

>  <INCHIKEY>  (1296) 
FSBNDYYRTZBHAN-ZCFIWIBFSA-N

$$$$
Ser_Pyranoseamino_RRSR
     RDKit          2D

 18 18  0  0  0  0  0  0  0  0999 V2000
   -3.8443   -1.9506    0.0000 N   0  0  0  0  0  0  0  0  0  0  0  0
   -3.5136   -0.4875    0.0000 C   0  0  0  0  0  0  0  0  0  0  0  0
   -2.0812   -0.0423    0.0000 C   0  0  0  0  0  0  0  0  0  0  0  0
   -0.9795   -1.0602    0.0000 O   0  0  0  0  0  0  0  0  0  0  0  0
    0.4529   -0.6150    0.0000 C   0  0  0  0  0  0  0  0  0  0  0  0
    0.7836    0.8481    0.0000 O   0  0  0  0  0  0  0  0  0  0  0  0
    2.2160    1.2933    0.0000 C   0  0  0  0  0  0  0  0  0  0  0  0
    2.5466    2.7564    0.0000 C   0  0  0  0  0  0  0  0  0  0  0  0
    1.4449    3.7743    0.0000 O   0  0  0  0  0  0  0  0  0  0  0  0
    3.3178    0.2754    0.0000 C   0  0  0  0  0  0  0  0  0  0  0  0
    4.7502    0.7206    0.0000 O   0  0  0  0  0  0  0  0  0  0  0  0
    2.9871   -1.1877    0.0000 C   0  0  0  0  0  0  0  0  0  0  0  0
    4.0889   -2.2056    0.0000 O   0  0  0  0  0  0  0  0  0  0  0  0
    1.5547   -1.6329    0.0000 C   0  0  0  0  0  0  0  0  0  0  0  0
    1.2240   -3.0960    0.0000 N   0  0  0  0  0  0  0  0  0  0  0  0
   -4.6154    0.5304    0.0000 C   0  0  0  0  0  0  0  0  0  0  0  0
   -4.2848    1.9935    0.0000 O   0  0  0  0  0  0  0  0  0  0  0  0
   -6.0478    0.0852    0.0000 O   0  0  0  0  0  0  0  0  0  0  0  0
  2  1  1  6
  2  3  1  0
  3  4  1  0
  5  4  1  1
  5  6  1  0
  6  7  1  0
  7  8  1  6
  8  9  1  0
  7 10  1  0
 10 11  1  6
 10 12  1  0
 12 13  1  6
 12 14  1  0
 14 15  1  1
  2 16  1  0
 16 17  2  0
 16 18  1  0
 14  5  1  0
M  END
>  <rName>  (1297) 
Ser_Pyranoseamino_RRSR

>  <PQ_SYMBOL>  (1297) 
Ser_Pyranoseamino_RRSR

>  <FULL_NAME>  (1297) 
(2S)-2-amino-3-[(2S,3R,4R,5R,6R)-3-amino-4,5-dihydroxy-6-(hydroxymethyl)oxan-2-yl]oxypropanoic acid

>  <IUPAC_CONDENSED>  (1297) 
Ser(Pyranose-amino(RRSR))

>  <IUPAC>  (1297) 
(2S)-2-amino-3-(((2S,3R,4R,5R,6R)-3-amino-4,5-dihydroxy-6-(hydroxymethyl)-oxan-2-yl)oxy)propanoic acid

>  <TYPE>  (1297) 
Backbone

>  <CLASS>  (1297) 
alpha

>  <ANALOG>  (1297) 
Ser

>  <MOL_WT>  (1297) 
266.25

>  <LOGP>  (1297) 
-3.818799999999995

>  <TPSA>  (1297) 
168.49

>  <POPULARITY>  (1297) 
5.4

>  <PROTECTED>  (1297) 
TRUE

>  <SMILES>  (1297) 
N[C@@H](CO[C@H]1(O[C@H](CO)[C@H](O)[C@H](O)[C@H]1N))C(=O)O

>  <INCHIKEY>  (1297) 
RWGDOKVLDPIJFL-MRXKBSKTSA-N

$$$$
bAla_2ROH_3RPh
     RDKit          2D

 13 13  0  0  0  0  0  0  0  0999 V2000
   -0.9220   -2.0742    0.0000 N   0  0  0  0  0  0  0  0  0  0  0  0
   -0.4991   -0.6350    0.0000 C   0  0  0  0  0  0  0  0  0  0  0  0
    0.9587   -0.2818    0.0000 C   0  0  0  0  0  0  0  0  0  0  0  0
    1.3817    1.1574    0.0000 C   0  0  0  0  0  0  0  0  0  0  0  0
    2.8395    1.5107    0.0000 C   0  0  0  0  0  0  0  0  0  0  0  0
    3.8743    0.4248    0.0000 C   0  0  0  0  0  0  0  0  0  0  0  0
    3.4514   -1.0143    0.0000 C   0  0  0  0  0  0  0  0  0  0  0  0
    1.9936   -1.3676    0.0000 C   0  0  0  0  0  0  0  0  0  0  0  0
   -1.5339    0.4508    0.0000 C   0  0  0  0  0  0  0  0  0  0  0  0
   -1.1110    1.8899    0.0000 O   0  0  0  0  0  0  0  0  0  0  0  0
   -2.9917    0.0975    0.0000 C   0  0  0  0  0  0  0  0  0  0  0  0
   -3.4147   -1.3416    0.0000 O   0  0  0  0  0  0  0  0  0  0  0  0
   -4.0266    1.1834    0.0000 O   0  0  0  0  0  0  0  0  0  0  0  0
  2  1  1  1
  2  3  1  0
  3  4  2  0
  4  5  1  0
  5  6  2  0
  6  7  1  0
  7  8  2  0
  2  9  1  0
  9 10  1  6
  9 11  1  0
 11 12  2  0
 11 13  1  0
  8  3  1  0
M  END
>  <rName>  (1298) 
bAla_2ROH_3RPh

>  <PQ_SYMBOL>  (1298) 
bAla_2ROH_3RPh

>  <FULL_NAME>  (1298) 
(2R,3R)-3-amino-2-hydroxy-3-phenylpropanoic acid

>  <IUPAC_CONDENSED>  (1298) 
bAla(2R-OH,3R-Ph)

>  <IUPAC>  (1298) 
(2R,3R)-3-amino-2-hydroxy-3-phenylpropanoic acid

>  <TYPE>  (1298) 
Backbone

>  <CLASS>  (1298) 
beta

>  <ANALOG>  (1298) 
X

>  <MOL_WT>  (1298) 
181.19099999999997

>  <LOGP>  (1298) 
0.13190000000000013

>  <TPSA>  (1298) 
83.55

>  <POPULARITY>  (1298) 
6.4

>  <PROTECTED>  (1298) 
TRUE

>  <SMILES>  (1298) 
N[C@H](c1(ccccc1))[C@@H](O)C(=O)O

>  <INCHIKEY>  (1298) 
RZARFIRJROUVLM-HTQZYQBOSA-N

$$$$
bAla_2ROH_3RPh_4F
     RDKit          2D

 14 14  0  0  0  0  0  0  0  0999 V2000
   -1.3920   -2.0726    0.0000 N   0  0  0  0  0  0  0  0  0  0  0  0
   -0.9084   -0.6527    0.0000 C   0  0  0  0  0  0  0  0  0  0  0  0
    0.5630   -0.3615    0.0000 C   0  0  0  0  0  0  0  0  0  0  0  0
    1.0466    1.0584    0.0000 C   0  0  0  0  0  0  0  0  0  0  0  0
    2.5180    1.3496    0.0000 C   0  0  0  0  0  0  0  0  0  0  0  0
    3.5060    0.2209    0.0000 C   0  0  0  0  0  0  0  0  0  0  0  0
    4.9774    0.5121    0.0000 F   0  0  0  0  0  0  0  0  0  0  0  0
    3.0224   -1.1991    0.0000 C   0  0  0  0  0  0  0  0  0  0  0  0
    1.5509   -1.4902    0.0000 C   0  0  0  0  0  0  0  0  0  0  0  0
   -1.8963    0.4760    0.0000 C   0  0  0  0  0  0  0  0  0  0  0  0
   -1.4128    1.8959    0.0000 O   0  0  0  0  0  0  0  0  0  0  0  0
   -3.3678    0.1848    0.0000 C   0  0  0  0  0  0  0  0  0  0  0  0
   -3.8514   -1.2351    0.0000 O   0  0  0  0  0  0  0  0  0  0  0  0
   -4.3557    1.3135    0.0000 O   0  0  0  0  0  0  0  0  0  0  0  0
  2  1  1  1
  2  3  1  0
  3  4  1  0
  4  5  2  0
  5  6  1  0
  6  7  1  0
  6  8  2  0
  8  9  1  0
  2 10  1  0
 10 11  1  6
 10 12  1  0
 12 13  2  0
 12 14  1  0
  9  3  2  0
M  END
>  <rName>  (1299) 
bAla_2ROH_3RPh_4F

>  <PQ_SYMBOL>  (1299) 
bAla_2ROH_3RPh_4F

>  <FULL_NAME>  (1299) 
(2R,3R)-3-amino-3-(4-fluorophenyl)-2-hydroxypropanoic acid

>  <IUPAC_CONDENSED>  (1299) 
bAla(2R-OH,3R-Ph(4-F))

>  <IUPAC>  (1299) 
(2R,3R)-3-amino-3-(4-fluorophenyl)-2-hydroxypropanoic acid

>  <TYPE>  (1299) 
Backbone

>  <CLASS>  (1299) 
beta

>  <ANALOG>  (1299) 
X

>  <MOL_WT>  (1299) 
199.18099999999998

>  <LOGP>  (1299) 
0.2710000000000002

>  <TPSA>  (1299) 
83.55

>  <POPULARITY>  (1299) 
3.8

>  <PROTECTED>  (1299) 
TRUE

>  <SMILES>  (1299) 
N[C@H](c1(ccc(F)cc1))[C@@H](O)C(=O)O

>  <INCHIKEY>  (1299) 
MGNTZYNDHDKPQD-HTQZYQBOSA-N

$$$$
bAla_2RPh
     RDKit          2D

 12 12  0  0  0  0  0  0  0  0999 V2000
    3.1463   -1.7206    0.0000 N   0  0  0  0  0  0  0  0  0  0  0  0
    1.6493   -1.6245    0.0000 C   0  0  0  0  0  0  0  0  0  0  0  0
    0.9841   -0.2801    0.0000 C   0  0  0  0  0  0  0  0  0  0  0  0
   -0.5128   -0.1840    0.0000 C   0  0  0  0  0  0  0  0  0  0  0  0
   -1.3445   -1.4324    0.0000 C   0  0  0  0  0  0  0  0  0  0  0  0
   -2.8414   -1.3363    0.0000 C   0  0  0  0  0  0  0  0  0  0  0  0
   -3.5067    0.0081    0.0000 C   0  0  0  0  0  0  0  0  0  0  0  0
   -2.6750    1.2564    0.0000 C   0  0  0  0  0  0  0  0  0  0  0  0
   -1.1781    1.1604    0.0000 C   0  0  0  0  0  0  0  0  0  0  0  0
    1.8157    0.9682    0.0000 C   0  0  0  0  0  0  0  0  0  0  0  0
    1.1505    2.3126    0.0000 O   0  0  0  0  0  0  0  0  0  0  0  0
    3.3127    0.8721    0.0000 O   0  0  0  0  0  0  0  0  0  0  0  0
  1  2  1  0
  3  2  1  1
  3  4  1  0
  4  5  2  0
  5  6  1  0
  6  7  2  0
  7  8  1  0
  8  9  2  0
  3 10  1  0
 10 11  2  0
 10 12  1  0
  9  4  1  0
M  END
>  <rName>  (1300) 
bAla_2RPh

>  <PQ_SYMBOL>  (1300) 
bAla_2RPh

>  <FULL_NAME>  (1300) 
(R)-3-amino-2-phenylpropanoic acid

>  <IUPAC_CONDENSED>  (1300) 
bAla(2R-Ph)

>  <IUPAC>  (1300) 
(2R)-3-amino-2-phenylpropanoic acid

>  <TYPE>  (1300) 
Backbone

>  <CLASS>  (1300) 
beta

>  <ANALOG>  (1300) 
X

>  <MOL_WT>  (1300) 
165.19199999999995

>  <LOGP>  (1300) 
0.8135000000000001

>  <TPSA>  (1300) 
63.32000000000001

>  <POPULARITY>  (1300) 
10.7

>  <PROTECTED>  (1300) 
TRUE

>  <SMILES>  (1300) 
NC[C@@H](c1(ccccc1))C(=O)O

>  <INCHIKEY>  (1300) 
LRCYAJZPDFSJPQ-QMMMGPOBSA-N

$$$$
D-Phg_2OMe
     RDKit          2D

 13 13  0  0  0  0  0  0  0  0999 V2000
   -1.1420   -2.1120    0.0000 N   0  0  0  0  0  0  0  0  0  0  0  0
   -1.2559   -0.6164    0.0000 C   0  0  0  0  0  0  0  0  0  0  0  0
   -0.0175    0.2301    0.0000 C   0  0  0  0  0  0  0  0  0  0  0  0
   -0.1314    1.7258    0.0000 C   0  0  0  0  0  0  0  0  0  0  0  0
    1.1069    2.5722    0.0000 C   0  0  0  0  0  0  0  0  0  0  0  0
    2.4592    1.9230    0.0000 C   0  0  0  0  0  0  0  0  0  0  0  0
    2.5731    0.4274    0.0000 C   0  0  0  0  0  0  0  0  0  0  0  0
    1.3347   -0.4191    0.0000 C   0  0  0  0  0  0  0  0  0  0  0  0
    1.4486   -1.9148    0.0000 O   0  0  0  0  0  0  0  0  0  0  0  0
    2.8008   -2.5640    0.0000 C   0  0  0  0  0  0  0  0  0  0  0  0
   -2.6081    0.0328    0.0000 C   0  0  0  0  0  0  0  0  0  0  0  0
   -2.7220    1.5285    0.0000 O   0  0  0  0  0  0  0  0  0  0  0  0
   -3.8464   -0.8136    0.0000 O   0  0  0  0  0  0  0  0  0  0  0  0
  2  1  1  1
  2  3  1  0
  3  4  2  0
  4  5  1  0
  5  6  2  0
  6  7  1  0
  7  8  2  0
  8  9  1  0
  9 10  1  0
  2 11  1  0
 11 12  2  0
 11 13  1  0
  8  3  1  0
M  END
>  <rName>  (1301) 
D-Phg_2OMe

>  <PQ_SYMBOL>  (1301) 
D-Phg_2OMe

>  <FULL_NAME>  (1301) 
(R)-2-amino-2-(2-methoxyphenyl)acetic acid

>  <IUPAC_CONDENSED>  (1301) 
D-Phg(2-OMe)

>  <IUPAC>  (1301) 
(2R)-2-amino-2-(2-methoxyphenyl)acetic acid

>  <TYPE>  (1301) 
Backbone

>  <CLASS>  (1301) 
alpha

>  <ANALOG>  (1301) 
X

>  <MOL_WT>  (1301) 
181.19099999999997

>  <LOGP>  (1301) 
0.7796000000000001

>  <TPSA>  (1301) 
72.55

>  <POPULARITY>  (1301) 
7.3

>  <PROTECTED>  (1301) 
TRUE

>  <SMILES>  (1301) 
N[C@H](c1(ccccc1OC))C(=O)O

>  <INCHIKEY>  (1301) 
DQSACLYOIBPCJU-MRVPVSSYSA-N

$$$$
aThr_Pyranose_RRSR
     RDKit          2D

 19 19  0  0  0  0  0  0  0  0999 V2000
   -1.1225    0.9369    0.0000 N   0  0  0  0  0  0  0  0  0  0  0  0
   -2.2840   -0.0122    0.0000 C   0  0  0  0  0  0  0  0  0  0  0  0
   -2.0427   -1.4927    0.0000 C   0  0  0  0  0  0  0  0  0  0  0  0
   -0.6400   -2.0240    0.0000 O   0  0  0  0  0  0  0  0  0  0  0  0
    0.5215   -1.0749    0.0000 C   0  0  0  0  0  0  0  0  0  0  0  0
    0.2803    0.4056    0.0000 O   0  0  0  0  0  0  0  0  0  0  0  0
    1.4418    1.3548    0.0000 C   0  0  0  0  0  0  0  0  0  0  0  0
    1.2005    2.8353    0.0000 C   0  0  0  0  0  0  0  0  0  0  0  0
   -0.2023    3.3666    0.0000 O   0  0  0  0  0  0  0  0  0  0  0  0
    2.8445    0.8235    0.0000 C   0  0  0  0  0  0  0  0  0  0  0  0
    4.0060    1.7727    0.0000 O   0  0  0  0  0  0  0  0  0  0  0  0
    3.0858   -0.6570    0.0000 C   0  0  0  0  0  0  0  0  0  0  0  0
    4.4885   -1.1883    0.0000 O   0  0  0  0  0  0  0  0  0  0  0  0
    1.9243   -1.6062    0.0000 C   0  0  0  0  0  0  0  0  0  0  0  0
    2.1655   -3.0866    0.0000 O   0  0  0  0  0  0  0  0  0  0  0  0
   -3.2042   -2.4419    0.0000 C   0  0  0  0  0  0  0  0  0  0  0  0
   -3.6867    0.5191    0.0000 C   0  0  0  0  0  0  0  0  0  0  0  0
   -4.8482   -0.4301    0.0000 O   0  0  0  0  0  0  0  0  0  0  0  0
   -3.9280    1.9995    0.0000 O   0  0  0  0  0  0  0  0  0  0  0  0
  2  1  1  1
  2  3  1  0
  3  4  1  0
  5  4  1  6
  5  6  1  0
  6  7  1  0
  7  8  1  6
  8  9  1  0
  7 10  1  0
 10 11  1  6
 10 12  1  0
 12 13  1  6
 12 14  1  0
 14 15  1  1
  3 16  1  1
  2 17  1  0
 17 18  2  0
 17 19  1  0
 14  5  1  0
M  END
>  <rName>  (1302) 
aThr_Pyranose_RRSR

>  <PQ_SYMBOL>  (1302) 
aThr_Pyranose_RRSR

>  <FULL_NAME>  (1302) 
O-((2R,3R,4S,5R,6R)-3,4,5-trihydroxy-6-(hydroxymethyl)tetrahydro-2H-pyran-2-yl)-L-allothreonine

>  <IUPAC_CONDENSED>  (1302) 
aThr(Pyranose(RRSR))

>  <IUPAC>  (1302) 
(2S,3S)-2-amino-3-(((2R,3R,4S,5R,6R)-3,4,5-trihydroxy-6-(hydroxymethyl)-oxan-2-yl)oxy)butanoic acid

>  <TYPE>  (1302) 
Backbone

>  <CLASS>  (1302) 
alpha

>  <ANALOG>  (1302) 
Thr

>  <MOL_WT>  (1302) 
281.261

>  <LOGP>  (1302) 
-3.3966999999999974

>  <TPSA>  (1302) 
162.70000000000002

>  <POPULARITY>  (1302) 
3.3

>  <PROTECTED>  (1302) 
TRUE

>  <SMILES>  (1302) 
N[C@@H]([C@@H](O[C@@H]1(O[C@H](CO)[C@H](O)[C@H](O)[C@H]1O))C)C(=O)O

>  <INCHIKEY>  (1302) 
DHIKRLNYEAMDOC-OBQVHOFBSA-N

$$$$
Thr_Pyranose_RSSR
     RDKit          2D

 19 19  0  0  0  0  0  0  0  0999 V2000
   -1.1225    0.9369    0.0000 N   0  0  0  0  0  0  0  0  0  0  0  0
   -2.2840   -0.0122    0.0000 C   0  0  0  0  0  0  0  0  0  0  0  0
   -2.0427   -1.4927    0.0000 C   0  0  0  0  0  0  0  0  0  0  0  0
   -0.6400   -2.0240    0.0000 O   0  0  0  0  0  0  0  0  0  0  0  0
    0.5215   -1.0749    0.0000 C   0  0  0  0  0  0  0  0  0  0  0  0
    0.2803    0.4056    0.0000 O   0  0  0  0  0  0  0  0  0  0  0  0
    1.4418    1.3548    0.0000 C   0  0  0  0  0  0  0  0  0  0  0  0
    1.2005    2.8353    0.0000 C   0  0  0  0  0  0  0  0  0  0  0  0
   -0.2023    3.3666    0.0000 O   0  0  0  0  0  0  0  0  0  0  0  0
    2.8445    0.8235    0.0000 C   0  0  0  0  0  0  0  0  0  0  0  0
    4.0060    1.7727    0.0000 O   0  0  0  0  0  0  0  0  0  0  0  0
    3.0858   -0.6570    0.0000 C   0  0  0  0  0  0  0  0  0  0  0  0
    4.4885   -1.1883    0.0000 O   0  0  0  0  0  0  0  0  0  0  0  0
    1.9243   -1.6062    0.0000 C   0  0  0  0  0  0  0  0  0  0  0  0
    2.1655   -3.0866    0.0000 O   0  0  0  0  0  0  0  0  0  0  0  0
   -3.2042   -2.4419    0.0000 C   0  0  0  0  0  0  0  0  0  0  0  0
   -3.6867    0.5191    0.0000 C   0  0  0  0  0  0  0  0  0  0  0  0
   -4.8482   -0.4301    0.0000 O   0  0  0  0  0  0  0  0  0  0  0  0
   -3.9280    1.9995    0.0000 O   0  0  0  0  0  0  0  0  0  0  0  0
  2  1  1  1
  2  3  1  0
  3  4  1  0
  5  4  1  6
  5  6  1  0
  6  7  1  0
  7  8  1  6
  8  9  1  0
  7 10  1  0
 10 11  1  1
 10 12  1  0
 12 13  1  6
 12 14  1  0
 14 15  1  1
  3 16  1  6
  2 17  1  0
 17 18  2  0
 17 19  1  0
 14  5  1  0
M  END
>  <rName>  (1303) 
Thr_Pyranose_RSSR

>  <PQ_SYMBOL>  (1303) 
Thr_Pyranose_RSSR

>  <FULL_NAME>  (1303) 
O-((2R,3R,4S,5S,6R)-3,4,5-trihydroxy-6-(hydroxymethyl)tetrahydro-2H-pyran-2-yl)-L-threonine

>  <IUPAC_CONDENSED>  (1303) 
Thr(Pyranose(RSSR))

>  <IUPAC>  (1303) 
(2S,3R)-2-amino-3-(((2R,3R,4S,5S,6R)-3,4,5-trihydroxy-6-(hydroxymethyl)-oxan-2-yl)oxy)butanoic acid

>  <TYPE>  (1303) 
Backbone

>  <CLASS>  (1303) 
alpha

>  <ANALOG>  (1303) 
Thr

>  <MOL_WT>  (1303) 
281.261

>  <LOGP>  (1303) 
-3.3966999999999974

>  <TPSA>  (1303) 
162.70000000000002

>  <POPULARITY>  (1303) 
3.3

>  <PROTECTED>  (1303) 
TRUE

>  <SMILES>  (1303) 
N[C@@H]([C@H](O[C@@H]1(O[C@H](CO)[C@@H](O)[C@H](O)[C@H]1O))C)C(=O)O

>  <INCHIKEY>  (1303) 
DHIKRLNYEAMDOC-VUQUFYOQSA-N

$$$$
bAla_2ROH_3RPh_4CF3
     RDKit          2D

 17 17  0  0  0  0  0  0  0  0999 V2000
   -2.4575   -2.0661    0.0000 N   0  0  0  0  0  0  0  0  0  0  0  0
   -1.9073   -0.6706    0.0000 C   0  0  0  0  0  0  0  0  0  0  0  0
   -0.4236   -0.4495    0.0000 C   0  0  0  0  0  0  0  0  0  0  0  0
    0.1266    0.9460    0.0000 C   0  0  0  0  0  0  0  0  0  0  0  0
    1.6102    1.1672    0.0000 C   0  0  0  0  0  0  0  0  0  0  0  0
    2.5436   -0.0071    0.0000 C   0  0  0  0  0  0  0  0  0  0  0  0
    1.9933   -1.4025    0.0000 C   0  0  0  0  0  0  0  0  0  0  0  0
    0.5097   -1.6237    0.0000 C   0  0  0  0  0  0  0  0  0  0  0  0
    4.0272    0.2141    0.0000 C   0  0  0  0  0  0  0  0  0  0  0  0
    5.5108    0.4353    0.0000 F   0  0  0  0  0  0  0  0  0  0  0  0
    4.2483   -1.2695    0.0000 F   0  0  0  0  0  0  0  0  0  0  0  0
    3.8060    1.6977    0.0000 F   0  0  0  0  0  0  0  0  0  0  0  0
   -2.8406    0.5036    0.0000 C   0  0  0  0  0  0  0  0  0  0  0  0
   -2.2904    1.8990    0.0000 O   0  0  0  0  0  0  0  0  0  0  0  0
   -4.3242    0.2824    0.0000 C   0  0  0  0  0  0  0  0  0  0  0  0
   -4.8745   -1.1130    0.0000 O   0  0  0  0  0  0  0  0  0  0  0  0
   -5.2576    1.4566    0.0000 O   0  0  0  0  0  0  0  0  0  0  0  0
  2  1  1  1
  2  3  1  0
  3  4  1  0
  4  5  2  0
  5  6  1  0
  6  7  2  0
  7  8  1  0
  6  9  1  0
  9 10  1  0
  9 11  1  0
  9 12  1  0
  2 13  1  0
 13 14  1  6
 13 15  1  0
 15 16  2  0
 15 17  1  0
  8  3  2  0
M  END
>  <rName>  (1304) 
bAla_2ROH_3RPh_4CF3

>  <PQ_SYMBOL>  (1304) 
bAla_2ROH_3RPh_4CF3

>  <FULL_NAME>  (1304) 
(2R,3R)-3-amino-2-hydroxy-3-(4-(trifluoromethyl)phenyl)propanoic acid

>  <IUPAC_CONDENSED>  (1304) 
bAla(2R-OH,3R-Ph(4-CF3))

>  <IUPAC>  (1304) 
(2R,3R)-3-amino-2-hydroxy-3-(4-(trifluoromethyl)phenyl)propanoic acid

>  <TYPE>  (1304) 
Backbone

>  <CLASS>  (1304) 
beta

>  <ANALOG>  (1304) 
X

>  <MOL_WT>  (1304) 
249.18799999999996

>  <LOGP>  (1304) 
1.1507

>  <TPSA>  (1304) 
83.55

>  <POPULARITY>  (1304) 
2.8

>  <PROTECTED>  (1304) 
TRUE

>  <SMILES>  (1304) 
N[C@H](c1(ccc(cc1)C(F)(F)F))[C@@H](O)C(=O)O

>  <INCHIKEY>  (1304) 
OEGSRMZWWHEQGV-HTQZYQBOSA-N

$$$$
D-Tyr_2I
     RDKit          2D

 14 14  0  0  0  0  0  0  0  0999 V2000
   -1.7174    1.8436    0.0000 N   0  0  0  0  0  0  0  0  0  0  0  0
   -2.1036    0.3942    0.0000 C   0  0  0  0  0  0  0  0  0  0  0  0
   -1.0414   -0.6650    0.0000 C   0  0  0  0  0  0  0  0  0  0  0  0
    0.4069   -0.2747    0.0000 C   0  0  0  0  0  0  0  0  0  0  0  0
    0.7931    1.1747    0.0000 C   0  0  0  0  0  0  0  0  0  0  0  0
    2.2415    1.5649    0.0000 C   0  0  0  0  0  0  0  0  0  0  0  0
    3.3036    0.5057    0.0000 C   0  0  0  0  0  0  0  0  0  0  0  0
    4.7520    0.8960    0.0000 O   0  0  0  0  0  0  0  0  0  0  0  0
    2.9174   -0.9437    0.0000 C   0  0  0  0  0  0  0  0  0  0  0  0
    1.4691   -1.3339    0.0000 C   0  0  0  0  0  0  0  0  0  0  0  0
    1.0829   -2.7834    0.0000 I   0  0  0  0  0  0  0  0  0  0  0  0
   -3.5519    0.0039    0.0000 C   0  0  0  0  0  0  0  0  0  0  0  0
   -3.9381   -1.4455    0.0000 O   0  0  0  0  0  0  0  0  0  0  0  0
   -4.6140    1.0631    0.0000 O   0  0  0  0  0  0  0  0  0  0  0  0
  2  1  1  6
  2  3  1  0
  3  4  1  0
  4  5  1  0
  5  6  2  0
  6  7  1  0
  7  8  1  0
  7  9  2  0
  9 10  1  0
 10 11  1  0
  2 12  1  0
 12 13  2  0
 12 14  1  0
 10  4  2  0
M  END
>  <rName>  (1305) 
D-Tyr_2I

>  <PQ_SYMBOL>  (1305) 
D-Tyr_2I

>  <FULL_NAME>  (1305) 
(R)-2-amino-3-(4-hydroxy-2-iodophenyl)propanoic acid

>  <IUPAC_CONDENSED>  (1305) 
D-Tyr(2-I)

>  <IUPAC>  (1305) 
(2R)-2-amino-3-(4-hydroxy-2-iodophenyl)propanoic acid

>  <TYPE>  (1305) 
Backbone

>  <CLASS>  (1305) 
alpha

>  <ANALOG>  (1305) 
Tyr

>  <MOL_WT>  (1305) 
307.087

>  <LOGP>  (1305) 
0.9512

>  <TPSA>  (1305) 
83.55

>  <POPULARITY>  (1305) 
3.1

>  <PROTECTED>  (1305) 
TRUE

>  <SMILES>  (1305) 
N[C@H](Cc1(ccc(O)cc1I))C(=O)O

>  <INCHIKEY>  (1305) 
BMBZSHPNHVPCNG-MRVPVSSYSA-N

$$$$
Cys_SPh_24_6triOMe
     RDKit          2D

 20 20  0  0  0  0  0  0  0  0999 V2000
   -3.7773    1.8409    0.0000 N   0  0  0  0  0  0  0  0  0  0  0  0
   -4.0220    0.3610    0.0000 C   0  0  0  0  0  0  0  0  0  0  0  0
   -2.8627   -0.5909    0.0000 C   0  0  0  0  0  0  0  0  0  0  0  0
   -1.4587   -0.0628    0.0000 S   0  0  0  0  0  0  0  0  0  0  0  0
   -0.2995   -1.0147    0.0000 S   0  0  0  0  0  0  0  0  0  0  0  0
    1.1045   -0.4867    0.0000 C   0  0  0  0  0  0  0  0  0  0  0  0
    1.3493    0.9932    0.0000 C   0  0  0  0  0  0  0  0  0  0  0  0
    0.1900    1.9451    0.0000 O   0  0  0  0  0  0  0  0  0  0  0  0
    0.4347    3.4250    0.0000 C   0  0  0  0  0  0  0  0  0  0  0  0
    2.7532    1.5212    0.0000 C   0  0  0  0  0  0  0  0  0  0  0  0
    3.9125    0.5693    0.0000 C   0  0  0  0  0  0  0  0  0  0  0  0
    5.3165    1.0973    0.0000 O   0  0  0  0  0  0  0  0  0  0  0  0
    6.4758    0.1454    0.0000 C   0  0  0  0  0  0  0  0  0  0  0  0
    3.6678   -0.9106    0.0000 C   0  0  0  0  0  0  0  0  0  0  0  0
    2.2638   -1.4386    0.0000 C   0  0  0  0  0  0  0  0  0  0  0  0
    2.0191   -2.9185    0.0000 O   0  0  0  0  0  0  0  0  0  0  0  0
    0.6151   -3.4465    0.0000 C   0  0  0  0  0  0  0  0  0  0  0  0
   -5.4260   -0.1670    0.0000 C   0  0  0  0  0  0  0  0  0  0  0  0
   -5.6707   -1.6469    0.0000 O   0  0  0  0  0  0  0  0  0  0  0  0
   -6.5853    0.7849    0.0000 O   0  0  0  0  0  0  0  0  0  0  0  0
  2  1  1  1
  2  3  1  0
  3  4  1  0
  4  5  1  0
  5  6  1  0
  6  7  2  0
  7  8  1  0
  8  9  1  0
  7 10  1  0
 10 11  2  0
 11 12  1  0
 12 13  1  0
 11 14  1  0
 14 15  2  0
 15 16  1  0
 16 17  1  0
  2 18  1  0
 18 19  2  0
 18 20  1  0
 15  6  1  0
M  END
>  <rName>  (1306) 
Cys_SPh_24_6triOMe

>  <PQ_SYMBOL>  (1306) 
Cys_SPh_24_6triOMe

>  <FULL_NAME>  (1306) 
S-((2,4,6-trimethoxyphenyl)thio)-L-cysteine

>  <IUPAC_CONDENSED>  (1306) 
Cys(S-Ph(2,4,6-triOMe))

>  <IUPAC>  (1306) 
(2R)-2-amino-3-(((2,4,6-trimethoxyphenyl)sulfanyl)sulfanyl)propanoic acid

>  <TYPE>  (1306) 
Backbone

>  <CLASS>  (1306) 
alpha

>  <ANALOG>  (1306) 
Cys

>  <MOL_WT>  (1306) 
319.40400000000005

>  <LOGP>  (1306) 
1.8646

>  <TPSA>  (1306) 
91.01

>  <POPULARITY>  (1306) 
2.4

>  <PROTECTED>  (1306) 
TRUE

>  <SMILES>  (1306) 
N[C@@H](CSSc1(c(OC)cc(OC)cc1OC))C(=O)O

>  <INCHIKEY>  (1306) 
LREMIXCQRUIDAW-QMMMGPOBSA-N

$$$$
D-hLys
     RDKit          2D

 11 10  0  0  0  0  0  0  0  0999 V2000
   -1.9630    1.8884    0.0000 N   0  0  0  0  0  0  0  0  0  0  0  0
   -1.9989    0.3888    0.0000 C   0  0  0  0  0  0  0  0  0  0  0  0
   -0.7181   -0.3920    0.0000 C   0  0  0  0  0  0  0  0  0  0  0  0
    0.5985    0.3267    0.0000 C   0  0  0  0  0  0  0  0  0  0  0  0
    1.8792   -0.4541    0.0000 C   0  0  0  0  0  0  0  0  0  0  0  0
    3.1958    0.2646    0.0000 C   0  0  0  0  0  0  0  0  0  0  0  0
    4.4765   -0.5162    0.0000 C   0  0  0  0  0  0  0  0  0  0  0  0
    5.7931    0.2025    0.0000 N   0  0  0  0  0  0  0  0  0  0  0  0
   -3.3155   -0.3299    0.0000 C   0  0  0  0  0  0  0  0  0  0  0  0
   -3.3513   -1.8295    0.0000 O   0  0  0  0  0  0  0  0  0  0  0  0
   -4.5962    0.4509    0.0000 O   0  0  0  0  0  0  0  0  0  0  0  0
  2  1  1  6
  2  3  1  0
  3  4  1  0
  4  5  1  0
  5  6  1  0
  6  7  1  0
  7  8  1  0
  2  9  1  0
  9 10  2  0
  9 11  1  0
M  END
>  <rName>  (1307) 
D-hLys

>  <PQ_SYMBOL>  (1307) 
D-hLys

>  <FULL_NAME>  (1307) 
(R)-2,7-diaminoheptanoic acid

>  <IUPAC_CONDENSED>  (1307) 
D-hLys

>  <IUPAC>  (1307) 
(2R)-2,7-diaminoheptanoic acid

>  <TYPE>  (1307) 
Backbone

>  <CLASS>  (1307) 
alpha

>  <ANALOG>  (1307) 
Lys

>  <MOL_WT>  (1307) 
160.217

>  <LOGP>  (1307) 
-0.08260000000000067

>  <TPSA>  (1307) 
89.34

>  <POPULARITY>  (1307) 
9.3

>  <PROTECTED>  (1307) 
TRUE

>  <SMILES>  (1307) 
N[C@H](CCCCCN)C(=O)O

>  <INCHIKEY>  (1307) 
NMDDZEVVQDPECF-ZCFIWIBFSA-N

$$$$
Ser_Pyranoseamino_RSSR
     RDKit          2D

 18 18  0  0  0  0  0  0  0  0999 V2000
   -3.8443   -1.9506    0.0000 N   0  0  0  0  0  0  0  0  0  0  0  0
   -3.5136   -0.4875    0.0000 C   0  0  0  0  0  0  0  0  0  0  0  0
   -2.0812   -0.0423    0.0000 C   0  0  0  0  0  0  0  0  0  0  0  0
   -0.9795   -1.0602    0.0000 O   0  0  0  0  0  0  0  0  0  0  0  0
    0.4529   -0.6150    0.0000 C   0  0  0  0  0  0  0  0  0  0  0  0
    0.7836    0.8481    0.0000 O   0  0  0  0  0  0  0  0  0  0  0  0
    2.2160    1.2933    0.0000 C   0  0  0  0  0  0  0  0  0  0  0  0
    2.5466    2.7564    0.0000 C   0  0  0  0  0  0  0  0  0  0  0  0
    1.4449    3.7743    0.0000 O   0  0  0  0  0  0  0  0  0  0  0  0
    3.3178    0.2754    0.0000 C   0  0  0  0  0  0  0  0  0  0  0  0
    4.7502    0.7206    0.0000 O   0  0  0  0  0  0  0  0  0  0  0  0
    2.9871   -1.1877    0.0000 C   0  0  0  0  0  0  0  0  0  0  0  0
    4.0889   -2.2056    0.0000 O   0  0  0  0  0  0  0  0  0  0  0  0
    1.5547   -1.6329    0.0000 C   0  0  0  0  0  0  0  0  0  0  0  0
    1.2240   -3.0960    0.0000 N   0  0  0  0  0  0  0  0  0  0  0  0
   -4.6154    0.5304    0.0000 C   0  0  0  0  0  0  0  0  0  0  0  0
   -4.2848    1.9935    0.0000 O   0  0  0  0  0  0  0  0  0  0  0  0
   -6.0478    0.0852    0.0000 O   0  0  0  0  0  0  0  0  0  0  0  0
  2  1  1  6
  2  3  1  0
  3  4  1  0
  5  4  1  6
  5  6  1  0
  6  7  1  0
  7  8  1  6
  8  9  1  0
  7 10  1  0
 10 11  1  1
 10 12  1  0
 12 13  1  6
 12 14  1  0
 14 15  1  1
  2 16  1  0
 16 17  2  0
 16 18  1  0
 14  5  1  0
M  END
>  <rName>  (1308) 
Ser_Pyranoseamino_RSSR

>  <PQ_SYMBOL>  (1308) 
Ser_Pyranoseamino_RSSR

>  <FULL_NAME>  (1308) 
O-((2R,3R,4R,5S,6R)-3-amino-4,5-dihydroxy-6-(hydroxymethyl)tetrahydro-2H-pyran-2-yl)-L-serine

>  <IUPAC_CONDENSED>  (1308) 
Ser(Pyranose-amino(RSSR))

>  <IUPAC>  (1308) 
(2S)-2-amino-3-(((2R,3R,4R,5S,6R)-3-amino-4,5-dihydroxy-6-(hydroxymethyl)-oxan-2-yl)oxy)propanoic acid

>  <TYPE>  (1308) 
Backbone

>  <CLASS>  (1308) 
alpha

>  <ANALOG>  (1308) 
Ser

>  <MOL_WT>  (1308) 
266.25

>  <LOGP>  (1308) 
-3.818799999999995

>  <TPSA>  (1308) 
168.49

>  <POPULARITY>  (1308) 
3.9

>  <PROTECTED>  (1308) 
TRUE

>  <SMILES>  (1308) 
N[C@@H](CO[C@@H]1(O[C@H](CO)[C@@H](O)[C@H](O)[C@H]1N))C(=O)O

>  <INCHIKEY>  (1308) 
RWGDOKVLDPIJFL-LSRLBZCKSA-N

$$$$
Thr_Pyranoseamino_RSSR
     RDKit          2D

 19 19  0  0  0  0  0  0  0  0999 V2000
   -1.1225    0.9369    0.0000 N   0  0  0  0  0  0  0  0  0  0  0  0
   -2.2840   -0.0122    0.0000 C   0  0  0  0  0  0  0  0  0  0  0  0
   -2.0427   -1.4927    0.0000 C   0  0  0  0  0  0  0  0  0  0  0  0
   -0.6400   -2.0240    0.0000 O   0  0  0  0  0  0  0  0  0  0  0  0
    0.5215   -1.0749    0.0000 C   0  0  0  0  0  0  0  0  0  0  0  0
    0.2803    0.4056    0.0000 O   0  0  0  0  0  0  0  0  0  0  0  0
    1.4418    1.3548    0.0000 C   0  0  0  0  0  0  0  0  0  0  0  0
    1.2005    2.8353    0.0000 C   0  0  0  0  0  0  0  0  0  0  0  0
   -0.2023    3.3666    0.0000 O   0  0  0  0  0  0  0  0  0  0  0  0
    2.8445    0.8235    0.0000 C   0  0  0  0  0  0  0  0  0  0  0  0
    4.0060    1.7727    0.0000 O   0  0  0  0  0  0  0  0  0  0  0  0
    3.0858   -0.6570    0.0000 C   0  0  0  0  0  0  0  0  0  0  0  0
    4.4885   -1.1883    0.0000 O   0  0  0  0  0  0  0  0  0  0  0  0
    1.9243   -1.6062    0.0000 C   0  0  0  0  0  0  0  0  0  0  0  0
    2.1655   -3.0866    0.0000 N   0  0  0  0  0  0  0  0  0  0  0  0
   -3.2042   -2.4419    0.0000 C   0  0  0  0  0  0  0  0  0  0  0  0
   -3.6867    0.5191    0.0000 C   0  0  0  0  0  0  0  0  0  0  0  0
   -4.8482   -0.4301    0.0000 O   0  0  0  0  0  0  0  0  0  0  0  0
   -3.9280    1.9995    0.0000 O   0  0  0  0  0  0  0  0  0  0  0  0
  2  1  1  1
  2  3  1  0
  3  4  1  0
  5  4  1  6
  5  6  1  0
  6  7  1  0
  7  8  1  6
  8  9  1  0
  7 10  1  0
 10 11  1  1
 10 12  1  0
 12 13  1  6
 12 14  1  0
 14 15  1  1
  3 16  1  6
  2 17  1  0
 17 18  2  0
 17 19  1  0
 14  5  1  0
M  END
>  <rName>  (1309) 
Thr_Pyranoseamino_RSSR

>  <PQ_SYMBOL>  (1309) 
Thr_Pyranoseamino_RSSR

>  <FULL_NAME>  (1309) 
O-((2R,3R,4R,5S,6R)-3-amino-4,5-dihydroxy-6-(hydroxymethyl)tetrahydro-2H-pyran-2-yl)-L-threonine

>  <IUPAC_CONDENSED>  (1309) 
Thr(Pyranose-amino(RSSR))

>  <IUPAC>  (1309) 
(2S,3R)-2-amino-3-(((2R,3R,4R,5S,6R)-3-amino-4,5-dihydroxy-6-(hydroxymethyl)-oxan-2-yl)oxy)butanoic acid

>  <TYPE>  (1309) 
Backbone

>  <CLASS>  (1309) 
alpha

>  <ANALOG>  (1309) 
Thr

>  <MOL_WT>  (1309) 
280.27700000000004

>  <LOGP>  (1309) 
-3.4302999999999946

>  <TPSA>  (1309) 
168.49

>  <POPULARITY>  (1309) 
3.4

>  <PROTECTED>  (1309) 
TRUE

>  <SMILES>  (1309) 
N[C@@H]([C@H](O[C@@H]1(O[C@H](CO)[C@@H](O)[C@H](O)[C@H]1N))C)C(=O)O

>  <INCHIKEY>  (1309) 
FNKMCNJVMOTWSA-OMXDAKRKSA-N

$$$$
Phe_4OPh
     RDKit          2D

 19 20  0  0  0  0  0  0  0  0999 V2000
   -4.0697    1.5683    0.0000 N   0  0  0  0  0  0  0  0  0  0  0  0
   -4.2646    0.0811    0.0000 C   0  0  0  0  0  0  0  0  0  0  0  0
   -3.0740   -0.8314    0.0000 C   0  0  0  0  0  0  0  0  0  0  0  0
   -1.6885   -0.2565    0.0000 C   0  0  0  0  0  0  0  0  0  0  0  0
   -1.4936    1.2308    0.0000 C   0  0  0  0  0  0  0  0  0  0  0  0
   -0.1082    1.8057    0.0000 C   0  0  0  0  0  0  0  0  0  0  0  0
    1.0824    0.8933    0.0000 C   0  0  0  0  0  0  0  0  0  0  0  0
    2.4679    1.4681    0.0000 O   0  0  0  0  0  0  0  0  0  0  0  0
    3.6585    0.5557    0.0000 C   0  0  0  0  0  0  0  0  0  0  0  0
    3.4636   -0.9316    0.0000 C   0  0  0  0  0  0  0  0  0  0  0  0
    4.6542   -1.8440    0.0000 C   0  0  0  0  0  0  0  0  0  0  0  0
    6.0396   -1.2691    0.0000 C   0  0  0  0  0  0  0  0  0  0  0  0
    6.2345    0.2182    0.0000 C   0  0  0  0  0  0  0  0  0  0  0  0
    5.0439    1.1306    0.0000 C   0  0  0  0  0  0  0  0  0  0  0  0
    0.8875   -0.5940    0.0000 C   0  0  0  0  0  0  0  0  0  0  0  0
   -0.4979   -1.1689    0.0000 C   0  0  0  0  0  0  0  0  0  0  0  0
   -5.6500   -0.4938    0.0000 C   0  0  0  0  0  0  0  0  0  0  0  0
   -5.8449   -1.9811    0.0000 O   0  0  0  0  0  0  0  0  0  0  0  0
   -6.8406    0.4186    0.0000 O   0  0  0  0  0  0  0  0  0  0  0  0
  2  1  1  1
  2  3  1  0
  3  4  1  0
  4  5  1  0
  5  6  2  0
  6  7  1  0
  7  8  1  0
  8  9  1  0
  9 10  2  0
 10 11  1  0
 11 12  2  0
 12 13  1  0
 13 14  2  0
  7 15  2  0
 15 16  1  0
  2 17  1  0
 17 18  2  0
 17 19  1  0
 14  9  1  0
 16  4  2  0
M  END
>  <rName>  (1310) 
Phe_4OPh

>  <PQ_SYMBOL>  (1310) 
Phe_4OPh

>  <FULL_NAME>  (1310) 
(S)-2-amino-3-(4-phenoxyphenyl)propanoic acid

>  <IUPAC_CONDENSED>  (1310) 
Tyr(Ph)

>  <IUPAC>  (1310) 
(2S)-2-amino-3-(4-phenoxyphenyl)propanoic acid

>  <TYPE>  (1310) 
Backbone

>  <CLASS>  (1310) 
alpha

>  <ANALOG>  (1310) 
Tyr

>  <MOL_WT>  (1310) 
257.289

>  <LOGP>  (1310) 
2.4333

>  <TPSA>  (1310) 
72.55

>  <POPULARITY>  (1310) 
10.2

>  <PROTECTED>  (1310) 
TRUE

>  <SMILES>  (1310) 
N[C@@H](Cc2(ccc(Oc1(ccccc1))cc2))C(=O)O

>  <INCHIKEY>  (1310) 
DRDNRDDAAFSVNM-AWEZNQCLSA-N

$$$$
Pro_3SPh
     RDKit          2D

 14 15  0  0  0  0  0  0  0  0999 V2000
   -2.9834    0.7769    0.0000 N   0  0  0  0  0  0  0  0  0  0  0  0
   -1.7417   -0.0646    0.0000 C   0  0  0  0  0  0  0  0  0  0  0  0
   -0.5576    0.8562    0.0000 C   0  0  0  0  0  0  0  0  0  0  0  0
   -1.0675    2.2669    0.0000 C   0  0  0  0  0  0  0  0  0  0  0  0
   -2.5667    2.2179    0.0000 C   0  0  0  0  0  0  0  0  0  0  0  0
    0.8833    0.4396    0.0000 C   0  0  0  0  0  0  0  0  0  0  0  0
    1.2430   -1.0167    0.0000 C   0  0  0  0  0  0  0  0  0  0  0  0
    2.6840   -1.4333    0.0000 C   0  0  0  0  0  0  0  0  0  0  0  0
    3.7653   -0.3937    0.0000 C   0  0  0  0  0  0  0  0  0  0  0  0
    3.4056    1.0625    0.0000 C   0  0  0  0  0  0  0  0  0  0  0  0
    1.9647    1.4792    0.0000 C   0  0  0  0  0  0  0  0  0  0  0  0
   -1.6927   -1.5638    0.0000 C   0  0  0  0  0  0  0  0  0  0  0  0
   -0.3698   -2.2710    0.0000 O   0  0  0  0  0  0  0  0  0  0  0  0
   -2.9665   -2.3559    0.0000 O   0  0  0  0  0  0  0  0  0  0  0  0
  1  2  1  0
  2  3  1  0
  3  4  1  0
  4  5  1  0
  3  6  1  1
  6  7  2  0
  7  8  1  0
  8  9  2  0
  9 10  1  0
 10 11  2  0
  2 12  1  1
 12 13  2  0
 12 14  1  0
  5  1  1  0
 11  6  1  0
M  END
>  <rName>  (1311) 
Pro_3SPh

>  <PQ_SYMBOL>  (1311) 
Pro_3SPh

>  <FULL_NAME>  (1311) 
(2S,3S)-3-phenylpyrrolidine-2-carboxylic acid

>  <IUPAC_CONDENSED>  (1311) 
Pro(3S-Ph)

>  <IUPAC>  (1311) 
(2S,3S)-3-phenylpyrrolidine-2-carboxylic acid

>  <TYPE>  (1311) 
Backbone

>  <CLASS>  (1311) 
alpha

>  <ANALOG>  (1311) 
Pro

>  <MOL_WT>  (1311) 
191.23

>  <LOGP>  (1311) 
1.2167

>  <TPSA>  (1311) 
49.33

>  <POPULARITY>  (1311) 
6.5

>  <PROTECTED>  (1311) 
TRUE

>  <SMILES>  (1311) 
N1[C@@H]([C@@H](CC1)c2(ccccc2))C(=O)O

>  <INCHIKEY>  (1311) 
VDEMEKSASUGYHM-UWVGGRQHSA-N

$$$$
bAla_2SBn
     RDKit          2D

 13 13  0  0  0  0  0  0  0  0999 V2000
   -4.2270   -0.4748    0.0000 N   0  0  0  0  0  0  0  0  0  0  0  0
   -2.9684   -1.2908    0.0000 C   0  0  0  0  0  0  0  0  0  0  0  0
   -1.6324   -0.6089    0.0000 C   0  0  0  0  0  0  0  0  0  0  0  0
   -0.3738   -1.4249    0.0000 C   0  0  0  0  0  0  0  0  0  0  0  0
    0.9622   -0.7430    0.0000 C   0  0  0  0  0  0  0  0  0  0  0  0
    1.0396    0.7550    0.0000 C   0  0  0  0  0  0  0  0  0  0  0  0
    2.3756    1.4370    0.0000 C   0  0  0  0  0  0  0  0  0  0  0  0
    3.6342    0.6210    0.0000 C   0  0  0  0  0  0  0  0  0  0  0  0
    3.5568   -0.8770    0.0000 C   0  0  0  0  0  0  0  0  0  0  0  0
    2.2208   -1.5590    0.0000 C   0  0  0  0  0  0  0  0  0  0  0  0
   -1.5550    0.8891    0.0000 C   0  0  0  0  0  0  0  0  0  0  0  0
   -0.2190    1.5711    0.0000 O   0  0  0  0  0  0  0  0  0  0  0  0
   -2.8136    1.7052    0.0000 O   0  0  0  0  0  0  0  0  0  0  0  0
  1  2  1  0
  3  2  1  1
  3  4  1  0
  4  5  1  0
  5  6  2  0
  6  7  1  0
  7  8  2  0
  8  9  1  0
  9 10  2  0
  3 11  1  0
 11 12  2  0
 11 13  1  0
 10  5  1  0
M  END
>  <rName>  (1312) 
bAla_2SBn

>  <PQ_SYMBOL>  (1312) 
bAla_2SBn

>  <FULL_NAME>  (1312) 
(S)-3-amino-2-benzylpropanoic acid

>  <IUPAC_CONDENSED>  (1312) 
bAla(2S-Bn)

>  <IUPAC>  (1312) 
(2S)-3-amino-2-benzylpropanoic acid

>  <TYPE>  (1312) 
Backbone

>  <CLASS>  (1312) 
beta

>  <ANALOG>  (1312) 
Phe

>  <MOL_WT>  (1312) 
179.21899999999997

>  <LOGP>  (1312) 
0.8885999999999998

>  <TPSA>  (1312) 
63.32000000000001

>  <POPULARITY>  (1312) 
12.8

>  <PROTECTED>  (1312) 
TRUE

>  <SMILES>  (1312) 
NC[C@H](Cc1(ccccc1))C(=O)O

>  <INCHIKEY>  (1312) 
DJYVEBBGKNAHKE-VIFPVBQESA-N

$$$$
Aze_3SPh
     RDKit          2D

 13 14  0  0  0  0  0  0  0  0999 V2000
   -2.4442   -1.7714    0.0000 N   0  0  0  0  0  0  0  0  0  0  0  0
   -1.8678   -0.3866    0.0000 C   0  0  0  0  0  0  0  0  0  0  0  0
   -0.4829   -0.9630    0.0000 C   0  0  0  0  0  0  0  0  0  0  0  0
   -1.0593   -2.3479    0.0000 C   0  0  0  0  0  0  0  0  0  0  0  0
    0.9039   -0.3914    0.0000 C   0  0  0  0  0  0  0  0  0  0  0  0
    2.0923   -1.3066    0.0000 C   0  0  0  0  0  0  0  0  0  0  0  0
    3.4791   -0.7349    0.0000 C   0  0  0  0  0  0  0  0  0  0  0  0
    3.6775    0.7519    0.0000 C   0  0  0  0  0  0  0  0  0  0  0  0
    2.4890    1.6671    0.0000 C   0  0  0  0  0  0  0  0  0  0  0  0
    1.1022    1.0954    0.0000 C   0  0  0  0  0  0  0  0  0  0  0  0
   -2.4394    1.0002    0.0000 C   0  0  0  0  0  0  0  0  0  0  0  0
   -1.5242    2.1886    0.0000 O   0  0  0  0  0  0  0  0  0  0  0  0
   -3.9262    1.1985    0.0000 O   0  0  0  0  0  0  0  0  0  0  0  0
  1  2  1  0
  2  3  1  0
  3  4  1  0
  3  5  1  1
  5  6  2  0
  6  7  1  0
  7  8  2  0
  8  9  1  0
  9 10  2  0
  2 11  1  6
 11 12  2  0
 11 13  1  0
  4  1  1  0
 10  5  1  0
M  END
>  <rName>  (1313) 
Aze_3SPh

>  <PQ_SYMBOL>  (1313) 
Aze_3SPh

>  <FULL_NAME>  (1313) 
(2S,3S)-3-phenylazetidine-2-carboxylic acid

>  <IUPAC_CONDENSED>  (1313) 
Aze(3S-Ph)

>  <IUPAC>  (1313) 
(2S,3S)-3-phenylazetidine-2-carboxylic acid

>  <TYPE>  (1313) 
Backbone

>  <CLASS>  (1313) 
alpha

>  <ANALOG>  (1313) 
Pro

>  <MOL_WT>  (1313) 
177.20299999999997

>  <LOGP>  (1313) 
0.8266

>  <TPSA>  (1313) 
49.33

>  <POPULARITY>  (1313) 
5.2

>  <PROTECTED>  (1313) 
TRUE

>  <SMILES>  (1313) 
N1[C@@H]([C@H](C1)c2(ccccc2))C(=O)O

>  <INCHIKEY>  (1313) 
CCKKROBXZIZREN-BDAKNGLRSA-N

$$$$
NMe-Dab
     RDKit          2D

  9  8  0  0  0  0  0  0  0  0999 V2000
   -1.4625    1.4907    0.0000 N   0  0  0  0  0  0  0  0  0  0  0  0
   -2.8857    1.0168    0.0000 C   0  0  0  0  0  0  0  0  0  0  0  0
   -0.3405    0.4951    0.0000 C   0  0  0  0  0  0  0  0  0  0  0  0
    1.0826    0.9690    0.0000 C   0  0  0  0  0  0  0  0  0  0  0  0
    2.2046   -0.0266    0.0000 C   0  0  0  0  0  0  0  0  0  0  0  0
    3.6278    0.4473    0.0000 N   0  0  0  0  0  0  0  0  0  0  0  0
   -0.6417   -0.9743    0.0000 C   0  0  0  0  0  0  0  0  0  0  0  0
   -2.0649   -1.4482    0.0000 O   0  0  0  0  0  0  0  0  0  0  0  0
    0.4803   -1.9699    0.0000 O   0  0  0  0  0  0  0  0  0  0  0  0
  1  2  1  0
  1  3  1  0
  3  4  1  1
  4  5  1  0
  5  6  1  0
  3  7  1  0
  7  8  2  0
  7  9  1  0
M  END
>  <rName>  (1314) 
NMe-Dab

>  <PQ_SYMBOL>  (1314) 
NMe-Dab

>  <FULL_NAME>  (1314) 
(S)-4-amino-2-(methylamino)butanoic acid

>  <IUPAC_CONDENSED>  (1314) 
Me-Dab

>  <IUPAC>  (1314) 
(2S)-4-amino-2-(methylamino)butanoic acid

>  <TYPE>  (1314) 
Backbone

>  <CLASS>  (1314) 
alpha

>  <ANALOG>  (1314) 
X

>  <MOL_WT>  (1314) 
132.163

>  <LOGP>  (1314) 
-0.9921999999999993

>  <TPSA>  (1314) 
75.35

>  <POPULARITY>  (1314) 
14

>  <PROTECTED>  (1314) 
TRUE

>  <SMILES>  (1314) 
N(C)[C@@H](CCN)C(=O)O

>  <INCHIKEY>  (1314) 
AOUYBPUIMHMSSS-BYPYZUCNSA-N

$$$$
Phe_3CO2H
     RDKit          2D

 15 15  0  0  0  0  0  0  0  0999 V2000
   -2.6461    1.6149    0.0000 N   0  0  0  0  0  0  0  0  0  0  0  0
   -2.6827    0.1154    0.0000 C   0  0  0  0  0  0  0  0  0  0  0  0
   -1.4023   -0.6660    0.0000 C   0  0  0  0  0  0  0  0  0  0  0  0
   -0.0854    0.0521    0.0000 C   0  0  0  0  0  0  0  0  0  0  0  0
   -0.0488    1.5516    0.0000 C   0  0  0  0  0  0  0  0  0  0  0  0
    1.2681    2.2698    0.0000 C   0  0  0  0  0  0  0  0  0  0  0  0
    2.5485    1.4884    0.0000 C   0  0  0  0  0  0  0  0  0  0  0  0
    2.5119   -0.0112    0.0000 C   0  0  0  0  0  0  0  0  0  0  0  0
    1.1950   -0.7293    0.0000 C   0  0  0  0  0  0  0  0  0  0  0  0
    3.7923   -0.7926    0.0000 C   0  0  0  0  0  0  0  0  0  0  0  0
    5.1093   -0.0745    0.0000 O   0  0  0  0  0  0  0  0  0  0  0  0
    3.7558   -2.2922    0.0000 O   0  0  0  0  0  0  0  0  0  0  0  0
   -3.9996   -0.6028    0.0000 C   0  0  0  0  0  0  0  0  0  0  0  0
   -4.0361   -2.1023    0.0000 O   0  0  0  0  0  0  0  0  0  0  0  0
   -5.2800    0.1787    0.0000 O   0  0  0  0  0  0  0  0  0  0  0  0
  2  1  1  1
  2  3  1  0
  3  4  1  0
  4  5  1  0
  5  6  2  0
  6  7  1  0
  7  8  2  0
  8  9  1  0
  8 10  1  0
 10 11  2  0
 10 12  1  0
  2 13  1  0
 13 14  2  0
 13 15  1  0
  9  4  2  0
M  END
>  <rName>  (1315) 
Phe_3CO2H

>  <PQ_SYMBOL>  (1315) 
Phe_3CO2H

>  <FULL_NAME>  (1315) 
(S)-3-(2-amino-2-carboxyethyl)benzoic acid

>  <IUPAC_CONDENSED>  (1315) 
Phe(3-CO2H)

>  <IUPAC>  (1315) 
3-((2S)-2-amino-3-hydroxy-3-oxopropyl)benzoic acid

>  <TYPE>  (1315) 
Backbone

>  <CLASS>  (1315) 
alpha

>  <ANALOG>  (1315) 
Phe

>  <MOL_WT>  (1315) 
209.20099999999996

>  <LOGP>  (1315) 
0.33920000000000006

>  <TPSA>  (1315) 
100.62000000000002

>  <POPULARITY>  (1315) 
5.9

>  <PROTECTED>  (1315) 
TRUE

>  <SMILES>  (1315) 
N[C@@H](Cc1(cccc(c1)C(=O)O))C(=O)O

>  <INCHIKEY>  (1315) 
JANONUPBHGWOBP-QMMMGPOBSA-N

$$$$
aMeIle
     RDKit          2D

 10  9  0  0  0  0  0  0  0  0999 V2000
   -0.8453    2.0718    0.0000 N   0  0  0  0  0  0  0  0  0  0  0  0
   -0.8306    0.5718    0.0000 C   0  0  0  0  0  0  0  0  0  0  0  0
   -2.3305    0.5572    0.0000 C   0  0  0  0  0  0  0  0  0  0  0  0
    0.6693    0.5865    0.0000 C   0  0  0  0  0  0  0  0  0  0  0  0
    1.4066    1.8928    0.0000 C   0  0  0  0  0  0  0  0  0  0  0  0
    1.4320   -0.7052    0.0000 C   0  0  0  0  0  0  0  0  0  0  0  0
    2.9319   -0.6906    0.0000 C   0  0  0  0  0  0  0  0  0  0  0  0
   -0.8160   -0.9281    0.0000 C   0  0  0  0  0  0  0  0  0  0  0  0
   -2.1076   -1.6907    0.0000 O   0  0  0  0  0  0  0  0  0  0  0  0
    0.4903   -1.6654    0.0000 O   0  0  0  0  0  0  0  0  0  0  0  0
  1  2  1  0
  2  3  1  6
  2  4  1  0
  4  5  1  1
  4  6  1  0
  6  7  1  0
  2  8  1  0
  8  9  2  0
  8 10  1  0
M  END
>  <rName>  (1316) 
aMeIle

>  <PQ_SYMBOL>  (1316) 
aMeIle

>  <FULL_NAME>  (1316) 
(2S,3S)-2-amino-2,3-dimethylpentanoic acid

>  <IUPAC_CONDENSED>  (1316) 
aMeIle

>  <IUPAC>  (1316) 
(2S,3S)-2-amino-2,3-dimethylpentanoic acid

>  <TYPE>  (1316) 
Backbone

>  <CLASS>  (1316) 
alpha

>  <ANALOG>  (1316) 
Leu

>  <MOL_WT>  (1316) 
145.202

>  <LOGP>  (1316) 
0.8344999999999998

>  <TPSA>  (1316) 
63.32000000000001

>  <POPULARITY>  (1316) 
10

>  <PROTECTED>  (1316) 
TRUE

>  <SMILES>  (1316) 
N[C@@](C)([C@@H](C)CC)C(=O)O

>  <INCHIKEY>  (1316) 
RSPOGBIHKNKRFJ-FSPLSTOPSA-N

$$$$
Ala_22diMe4H1_3benzodioxinyl
     RDKit          2D

 18 19  0  0  0  0  0  0  0  0999 V2000
   -3.3721    1.6983    0.0000 N   0  0  0  0  0  0  0  0  0  0  0  0
   -3.6769    0.2296    0.0000 C   0  0  0  0  0  0  0  0  0  0  0  0
   -2.5573   -0.7687    0.0000 C   0  0  0  0  0  0  0  0  0  0  0  0
   -1.1330   -0.2982    0.0000 C   0  0  0  0  0  0  0  0  0  0  0  0
   -0.8282    1.1705    0.0000 C   0  0  0  0  0  0  0  0  0  0  0  0
    0.5961    1.6410    0.0000 C   0  0  0  0  0  0  0  0  0  0  0  0
    1.7157    0.6427    0.0000 C   0  0  0  0  0  0  0  0  0  0  0  0
    3.1400    1.1131    0.0000 O   0  0  0  0  0  0  0  0  0  0  0  0
    4.2596    0.1149    0.0000 C   0  0  0  0  0  0  0  0  0  0  0  0
    3.9548   -1.3539    0.0000 O   0  0  0  0  0  0  0  0  0  0  0  0
    2.5305   -1.8243    0.0000 C   0  0  0  0  0  0  0  0  0  0  0  0
    1.4109   -0.8260    0.0000 C   0  0  0  0  0  0  0  0  0  0  0  0
   -0.0134   -1.2965    0.0000 C   0  0  0  0  0  0  0  0  0  0  0  0
    5.6530   -0.4403    0.0000 C   0  0  0  0  0  0  0  0  0  0  0  0
    5.0482    1.3908    0.0000 C   0  0  0  0  0  0  0  0  0  0  0  0
   -5.1012   -0.2408    0.0000 C   0  0  0  0  0  0  0  0  0  0  0  0
   -5.4059   -1.7096    0.0000 O   0  0  0  0  0  0  0  0  0  0  0  0
   -6.2208    0.7574    0.0000 O   0  0  0  0  0  0  0  0  0  0  0  0
  2  1  1  1
  2  3  1  0
  3  4  1  0
  4  5  1  0
  5  6  2  0
  6  7  1  0
  7  8  1  0
  8  9  1  0
  9 10  1  0
 10 11  1  0
 11 12  1  0
 12 13  1  0
  9 14  1  0
  9 15  1  0
  2 16  1  0
 16 17  2  0
 16 18  1  0
 12  7  2  0
 13  4  2  0
M  END
>  <rName>  (1317) 
Ala_22diMe4H1_3benzodioxinyl

>  <PQ_SYMBOL>  (1317) 
Ala_22diMe4H1_3benzodioxinyl

>  <FULL_NAME>  (1317) 
(S)-2-amino-3-(2,2-dimethyl-4H-benzo[d][1,3]dioxin-6-yl)propanoic acid

>  <IUPAC_CONDENSED>  (1317) 
Ala(2,2-diMe-4H-1,3-benzodioxinyl)

>  <IUPAC>  (1317) 
(2S)-2-amino-3-(3,3-dimethyl-2,4-dioxabicyclo[4.4.0]deca-1(10),6,8-trien-8-yl)propanoic acid

>  <TYPE>  (1317) 
Backbone

>  <CLASS>  (1317) 
alpha

>  <ANALOG>  (1317) 
Tyr

>  <MOL_WT>  (1317) 
251.28199999999995

>  <LOGP>  (1317) 
1.2860999999999998

>  <TPSA>  (1317) 
81.78

>  <POPULARITY>  (1317) 
3.7

>  <PROTECTED>  (1317) 
TRUE

>  <SMILES>  (1317) 
N[C@@H](Cc2(ccc1(OC(OCc1c2)(C)C)))C(=O)O

>  <INCHIKEY>  (1317) 
YJUFZZSKANPCHI-JTQLQIEISA-N

$$$$
bAla_3RBuNH2
     RDKit          2D

 11 10  0  0  0  0  0  0  0  0999 V2000
    0.9412   -1.5022    0.0000 N   0  0  0  0  0  0  0  0  0  0  0  0
    0.8294   -0.0064    0.0000 C   0  0  0  0  0  0  0  0  0  0  0  0
   -0.5219    0.6447    0.0000 C   0  0  0  0  0  0  0  0  0  0  0  0
   -1.7614   -0.2000    0.0000 C   0  0  0  0  0  0  0  0  0  0  0  0
   -3.1127    0.4511    0.0000 C   0  0  0  0  0  0  0  0  0  0  0  0
   -4.3523   -0.3937    0.0000 C   0  0  0  0  0  0  0  0  0  0  0  0
   -5.7036    0.2574    0.0000 N   0  0  0  0  0  0  0  0  0  0  0  0
    2.0690    0.8384    0.0000 C   0  0  0  0  0  0  0  0  0  0  0  0
    3.4203    0.1873    0.0000 C   0  0  0  0  0  0  0  0  0  0  0  0
    3.5321   -1.3086    0.0000 O   0  0  0  0  0  0  0  0  0  0  0  0
    4.6598    1.0320    0.0000 O   0  0  0  0  0  0  0  0  0  0  0  0
  2  1  1  6
  2  3  1  0
  3  4  1  0
  4  5  1  0
  5  6  1  0
  6  7  1  0
  2  8  1  0
  8  9  1  0
  9 10  2  0
  9 11  1  0
M  END
>  <rName>  (1318) 
bAla_3RBuNH2

>  <PQ_SYMBOL>  (1318) 
bAla_3RBuNH2

>  <FULL_NAME>  (1318) 
(R)-3,7-diaminoheptanoic acid

>  <IUPAC_CONDENSED>  (1318) 
bAla(3R-BuNH2)

>  <IUPAC>  (1318) 
(3R)-3,7-diaminoheptanoic acid

>  <TYPE>  (1318) 
Backbone

>  <CLASS>  (1318) 
beta

>  <ANALOG>  (1318) 
Lys

>  <MOL_WT>  (1318) 
160.217

>  <LOGP>  (1318) 
-0.08260000000000073

>  <TPSA>  (1318) 
89.34

>  <POPULARITY>  (1318) 
9.6

>  <PROTECTED>  (1318) 
TRUE

>  <SMILES>  (1318) 
N[C@H](CCCCN)CC(=O)O

>  <INCHIKEY>  (1318) 
PJDINCOFOROBQW-ZCFIWIBFSA-N

$$$$
bAla_3RBn_4CN
     RDKit          2D

 15 15  0  0  0  0  0  0  0  0999 V2000
   -1.6975    1.1783    0.0000 N   0  0  0  0  0  0  0  0  0  0  0  0
   -2.0091   -0.2890    0.0000 C   0  0  0  0  0  0  0  0  0  0  0  0
   -0.8942   -1.2925    0.0000 C   0  0  0  0  0  0  0  0  0  0  0  0
    0.5323   -0.8286    0.0000 C   0  0  0  0  0  0  0  0  0  0  0  0
    0.8439    0.6387    0.0000 C   0  0  0  0  0  0  0  0  0  0  0  0
    2.2704    1.1025    0.0000 C   0  0  0  0  0  0  0  0  0  0  0  0
    3.3853    0.0990    0.0000 C   0  0  0  0  0  0  0  0  0  0  0  0
    4.8118    0.5629    0.0000 C   0  0  0  0  0  0  0  0  0  0  0  0
    6.2383    1.0267    0.0000 N   0  0  0  0  0  0  0  0  0  0  0  0
    3.0737   -1.3683    0.0000 C   0  0  0  0  0  0  0  0  0  0  0  0
    1.6473   -1.8321    0.0000 C   0  0  0  0  0  0  0  0  0  0  0  0
   -3.4356   -0.7528    0.0000 C   0  0  0  0  0  0  0  0  0  0  0  0
   -4.5505    0.2506    0.0000 C   0  0  0  0  0  0  0  0  0  0  0  0
   -4.2390    1.7179    0.0000 O   0  0  0  0  0  0  0  0  0  0  0  0
   -5.9770   -0.2132    0.0000 O   0  0  0  0  0  0  0  0  0  0  0  0
  2  1  1  6
  2  3  1  0
  3  4  1  0
  4  5  1  0
  5  6  2  0
  6  7  1  0
  7  8  1  0
  8  9  3  0
  7 10  2  0
 10 11  1  0
  2 12  1  0
 12 13  1  0
 13 14  2  0
 13 15  1  0
 11  4  2  0
M  END
>  <rName>  (1319) 
bAla_3RBn_4CN

>  <PQ_SYMBOL>  (1319) 
bAla_3RBn_4CN

>  <FULL_NAME>  (1319) 
(R)-3-amino-4-(4-cyanophenyl)butanoic acid

>  <IUPAC_CONDENSED>  (1319) 
bAla(3R-Bn(4-CN))

>  <IUPAC>  (1319) 
(3R)-3-amino-4-(4-(nitrilomethyl)phenyl)butanoic acid

>  <TYPE>  (1319) 
Backbone

>  <CLASS>  (1319) 
beta

>  <ANALOG>  (1319) 
Phe

>  <MOL_WT>  (1319) 
204.22899999999998

>  <LOGP>  (1319) 
0.9027800000000001

>  <TPSA>  (1319) 
87.11

>  <POPULARITY>  (1319) 
4.8

>  <PROTECTED>  (1319) 
TRUE

>  <SMILES>  (1319) 
N[C@H](Cc1(ccc(C#N)cc1))CC(=O)O

>  <INCHIKEY>  (1319) 
YXRYZOCXTPVLRS-SNVBAGLBSA-N

$$$$
bAla_3Rthien3ylmethyl
     RDKit          2D

 12 12  0  0  0  0  0  0  0  0999 V2000
   -0.6782    1.2367    0.0000 N   0  0  0  0  0  0  0  0  0  0  0  0
   -0.8112   -0.2574    0.0000 C   0  0  0  0  0  0  0  0  0  0  0  0
    0.4162   -1.1196    0.0000 C   0  0  0  0  0  0  0  0  0  0  0  0
    1.7766   -0.4878    0.0000 C   0  0  0  0  0  0  0  0  0  0  0  0
    3.0874   -1.2170    0.0000 C   0  0  0  0  0  0  0  0  0  0  0  0
    4.1860   -0.1957    0.0000 C   0  0  0  0  0  0  0  0  0  0  0  0
    3.5542    1.1647    0.0000 S   0  0  0  0  0  0  0  0  0  0  0  0
    2.0651    0.9842    0.0000 C   0  0  0  0  0  0  0  0  0  0  0  0
   -2.1716   -0.8892    0.0000 C   0  0  0  0  0  0  0  0  0  0  0  0
   -3.3991   -0.0270    0.0000 C   0  0  0  0  0  0  0  0  0  0  0  0
   -3.2660    1.4671    0.0000 O   0  0  0  0  0  0  0  0  0  0  0  0
   -4.7595   -0.6589    0.0000 O   0  0  0  0  0  0  0  0  0  0  0  0
  2  1  1  6
  2  3  1  0
  3  4  1  0
  4  5  1  0
  5  6  2  0
  6  7  1  0
  7  8  1  0
  2  9  1  0
  9 10  1  0
 10 11  2  0
 10 12  1  0
  8  4  2  0
M  END
>  <rName>  (1320) 
bAla_3Rthien3ylmethyl

>  <PQ_SYMBOL>  (1320) 
bAla_3Rthien3ylmethyl

>  <FULL_NAME>  (1320) 
(R)-3-amino-4-(thiophen-3-yl)butanoic acid

>  <IUPAC_CONDENSED>  (1320) 
bAla(3R-thien-3-ylmethyl)

>  <IUPAC>  (1320) 
(3R)-3-amino-4-(thiophen-3-yl)butanoic acid

>  <TYPE>  (1320) 
Backbone

>  <CLASS>  (1320) 
beta

>  <ANALOG>  (1320) 
Phe

>  <MOL_WT>  (1320) 
185.24799999999996

>  <LOGP>  (1320) 
1.0926

>  <TPSA>  (1320) 
63.32000000000001

>  <POPULARITY>  (1320) 
3.8

>  <PROTECTED>  (1320) 
TRUE

>  <SMILES>  (1320) 
N[C@H](Cc1(ccsc1))CC(=O)O

>  <INCHIKEY>  (1320) 
AZWUDBISUBOQFK-SSDOTTSWSA-N

$$$$
bAla_3Sfurfuryl
     RDKit          2D

 12 12  0  0  0  0  0  0  0  0999 V2000
   -0.6782    1.2367    0.0000 N   0  0  0  0  0  0  0  0  0  0  0  0
   -0.8112   -0.2574    0.0000 C   0  0  0  0  0  0  0  0  0  0  0  0
    0.4162   -1.1196    0.0000 C   0  0  0  0  0  0  0  0  0  0  0  0
    1.7766   -0.4878    0.0000 C   0  0  0  0  0  0  0  0  0  0  0  0
    3.0874   -1.2170    0.0000 C   0  0  0  0  0  0  0  0  0  0  0  0
    4.1860   -0.1957    0.0000 C   0  0  0  0  0  0  0  0  0  0  0  0
    3.5542    1.1647    0.0000 C   0  0  0  0  0  0  0  0  0  0  0  0
    2.0651    0.9842    0.0000 O   0  0  0  0  0  0  0  0  0  0  0  0
   -2.1716   -0.8892    0.0000 C   0  0  0  0  0  0  0  0  0  0  0  0
   -3.3991   -0.0270    0.0000 C   0  0  0  0  0  0  0  0  0  0  0  0
   -3.2660    1.4671    0.0000 O   0  0  0  0  0  0  0  0  0  0  0  0
   -4.7595   -0.6589    0.0000 O   0  0  0  0  0  0  0  0  0  0  0  0
  2  1  1  1
  2  3  1  0
  3  4  1  0
  4  5  2  0
  5  6  1  0
  6  7  2  0
  7  8  1  0
  2  9  1  0
  9 10  1  0
 10 11  2  0
 10 12  1  0
  8  4  1  0
M  END
>  <rName>  (1321) 
bAla_3Sfurfuryl

>  <PQ_SYMBOL>  (1321) 
bAla_3Sfurfuryl

>  <FULL_NAME>  (1321) 
(S)-3-amino-4-(furan-2-yl)butanoic acid

>  <IUPAC_CONDENSED>  (1321) 
bAla(3S-furfuryl)

>  <IUPAC>  (1321) 
(3S)-3-amino-4-(furan-2-yl)butanoic acid

>  <TYPE>  (1321) 
Backbone

>  <CLASS>  (1321) 
beta

>  <ANALOG>  (1321) 
Phe

>  <MOL_WT>  (1321) 
169.17999999999998

>  <LOGP>  (1321) 
0.6240999999999999

>  <TPSA>  (1321) 
76.46

>  <POPULARITY>  (1321) 
3.2

>  <PROTECTED>  (1321) 
TRUE

>  <SMILES>  (1321) 
N[C@@H](Cc1(ccco1))CC(=O)O

>  <INCHIKEY>  (1321) 
ZIAIKPBTLUWDMG-LURJTMIESA-N

$$$$
bAla_3Rfurfuryl
     RDKit          2D

 12 12  0  0  0  0  0  0  0  0999 V2000
   -0.6782    1.2367    0.0000 N   0  0  0  0  0  0  0  0  0  0  0  0
   -0.8112   -0.2574    0.0000 C   0  0  0  0  0  0  0  0  0  0  0  0
    0.4162   -1.1196    0.0000 C   0  0  0  0  0  0  0  0  0  0  0  0
    1.7766   -0.4878    0.0000 C   0  0  0  0  0  0  0  0  0  0  0  0
    3.0874   -1.2170    0.0000 C   0  0  0  0  0  0  0  0  0  0  0  0
    4.1860   -0.1957    0.0000 C   0  0  0  0  0  0  0  0  0  0  0  0
    3.5542    1.1647    0.0000 C   0  0  0  0  0  0  0  0  0  0  0  0
    2.0651    0.9842    0.0000 O   0  0  0  0  0  0  0  0  0  0  0  0
   -2.1716   -0.8892    0.0000 C   0  0  0  0  0  0  0  0  0  0  0  0
   -3.3991   -0.0270    0.0000 C   0  0  0  0  0  0  0  0  0  0  0  0
   -3.2660    1.4671    0.0000 O   0  0  0  0  0  0  0  0  0  0  0  0
   -4.7595   -0.6589    0.0000 O   0  0  0  0  0  0  0  0  0  0  0  0
  2  1  1  6
  2  3  1  0
  3  4  1  0
  4  5  2  0
  5  6  1  0
  6  7  2  0
  7  8  1  0
  2  9  1  0
  9 10  1  0
 10 11  2  0
 10 12  1  0
  8  4  1  0
M  END
>  <rName>  (1322) 
bAla_3Rfurfuryl

>  <PQ_SYMBOL>  (1322) 
bAla_3Rfurfuryl

>  <FULL_NAME>  (1322) 
(R)-3-amino-4-(furan-2-yl)butanoic acid

>  <IUPAC_CONDENSED>  (1322) 
bAla(3R-furfuryl)

>  <IUPAC>  (1322) 
(3R)-3-amino-4-(furan-2-yl)butanoic acid

>  <TYPE>  (1322) 
Backbone

>  <CLASS>  (1322) 
beta

>  <ANALOG>  (1322) 
Phe

>  <MOL_WT>  (1322) 
169.17999999999998

>  <LOGP>  (1322) 
0.6240999999999999

>  <TPSA>  (1322) 
76.46

>  <POPULARITY>  (1322) 
4.4

>  <PROTECTED>  (1322) 
TRUE

>  <SMILES>  (1322) 
N[C@H](Cc1(ccco1))CC(=O)O

>  <INCHIKEY>  (1322) 
ZIAIKPBTLUWDMG-ZCFIWIBFSA-N

$$$$
Nle_Me_Me
     RDKit          2D

 11 10  0  0  0  0  0  0  0  0999 V2000
    1.6269   -1.8430    0.0000 N   0  0  0  0  0  0  0  0  0  0  0  0
    1.7489   -0.3480    0.0000 C   0  0  0  0  0  0  0  0  0  0  0  0
    0.5152    0.5052    0.0000 C   0  0  0  0  0  0  0  0  0  0  0  0
   -0.8406   -0.1366    0.0000 C   0  0  0  0  0  0  0  0  0  0  0  0
   -2.0743    0.7166    0.0000 C   0  0  0  0  0  0  0  0  0  0  0  0
   -3.4300    0.0748    0.0000 C   0  0  0  0  0  0  0  0  0  0  0  0
   -4.6637    0.9280    0.0000 C   0  0  0  0  0  0  0  0  0  0  0  0
   -3.5521   -1.4203    0.0000 C   0  0  0  0  0  0  0  0  0  0  0  0
    3.1047    0.2938    0.0000 C   0  0  0  0  0  0  0  0  0  0  0  0
    3.2267    1.7889    0.0000 O   0  0  0  0  0  0  0  0  0  0  0  0
    4.3384   -0.5594    0.0000 O   0  0  0  0  0  0  0  0  0  0  0  0
  2  1  1  1
  2  3  1  0
  3  4  1  0
  4  5  1  0
  5  6  1  0
  6  7  1  0
  6  8  1  0
  2  9  1  0
  9 10  2  0
  9 11  1  0
M  END
>  <rName>  (1323) 
Nle_Me_Me

>  <PQ_SYMBOL>  (1323) 
Nle_Me_Me

>  <FULL_NAME>  (1323) 
(S)-2-amino-6-methylheptanoic acid

>  <IUPAC_CONDENSED>  (1323) 
Nle(Me,Me)

>  <IUPAC>  (1323) 
(2S)-2-amino-6-methylheptanoic acid

>  <TYPE>  (1323) 
Backbone

>  <CLASS>  (1323) 
alpha

>  <ANALOG>  (1323) 
Leu

>  <MOL_WT>  (1323) 
159.22899999999998

>  <LOGP>  (1323) 
1.2245999999999997

>  <TPSA>  (1323) 
63.32000000000001

>  <POPULARITY>  (1323) 
10.6

>  <PROTECTED>  (1323) 
TRUE

>  <SMILES>  (1323) 
N[C@@H](CCCC(C)C)C(=O)O

>  <INCHIKEY>  (1323) 
HDIIAKZNFLPDPT-ZETCQYMHSA-N

$$$$
bAla_3RPh_2OH
     RDKit          2D

 13 13  0  0  0  0  0  0  0  0999 V2000
   -1.0916   -1.7365    0.0000 N   0  0  0  0  0  0  0  0  0  0  0  0
   -0.6994   -0.2887    0.0000 C   0  0  0  0  0  0  0  0  0  0  0  0
    0.7506    0.0955    0.0000 C   0  0  0  0  0  0  0  0  0  0  0  0
    1.1428    1.5433    0.0000 C   0  0  0  0  0  0  0  0  0  0  0  0
    2.5927    1.9276    0.0000 C   0  0  0  0  0  0  0  0  0  0  0  0
    3.6505    0.8640    0.0000 C   0  0  0  0  0  0  0  0  0  0  0  0
    3.2583   -0.5838    0.0000 C   0  0  0  0  0  0  0  0  0  0  0  0
    1.8083   -0.9680    0.0000 C   0  0  0  0  0  0  0  0  0  0  0  0
    1.4161   -2.4159    0.0000 O   0  0  0  0  0  0  0  0  0  0  0  0
   -1.7571    0.7749    0.0000 C   0  0  0  0  0  0  0  0  0  0  0  0
   -3.2071    0.3906    0.0000 C   0  0  0  0  0  0  0  0  0  0  0  0
   -3.5993   -1.0572    0.0000 O   0  0  0  0  0  0  0  0  0  0  0  0
   -4.2648    1.4542    0.0000 O   0  0  0  0  0  0  0  0  0  0  0  0
  2  1  1  1
  2  3  1  0
  3  4  2  0
  4  5  1  0
  5  6  2  0
  6  7  1  0
  7  8  2  0
  8  9  1  0
  2 10  1  0
 10 11  1  0
 11 12  2  0
 11 13  1  0
  8  3  1  0
M  END
>  <rName>  (1324) 
bAla_3RPh_2OH

>  <PQ_SYMBOL>  (1324) 
bAla_3RPh_2OH

>  <FULL_NAME>  (1324) 
(S)-3-amino-3-(2-hydroxyphenyl)propanoic acid

>  <IUPAC_CONDENSED>  (1324) 
bAla(3R-Ph(2-OH))

>  <IUPAC>  (1324) 
(3S)-3-amino-3-(2-hydroxyphenyl)propanoic acid

>  <TYPE>  (1324) 
Backbone

>  <CLASS>  (1324) 
beta

>  <ANALOG>  (1324) 
X

>  <MOL_WT>  (1324) 
181.19099999999995

>  <LOGP>  (1324) 
0.8667

>  <TPSA>  (1324) 
83.55

>  <POPULARITY>  (1324) 
8.1

>  <PROTECTED>  (1324) 
TRUE

>  <SMILES>  (1324) 
N[C@H](c1(ccccc1O))CC(=O)O

>  <INCHIKEY>  (1324) 
BMUFWTKVAWBABX-ZETCQYMHSA-N

$$$$
bAla_3SPh_2OH
     RDKit          2D

 13 13  0  0  0  0  0  0  0  0999 V2000
   -1.0916   -1.7365    0.0000 N   0  0  0  0  0  0  0  0  0  0  0  0
   -0.6994   -0.2887    0.0000 C   0  0  0  0  0  0  0  0  0  0  0  0
    0.7506    0.0955    0.0000 C   0  0  0  0  0  0  0  0  0  0  0  0
    1.1428    1.5433    0.0000 C   0  0  0  0  0  0  0  0  0  0  0  0
    2.5927    1.9276    0.0000 C   0  0  0  0  0  0  0  0  0  0  0  0
    3.6505    0.8640    0.0000 C   0  0  0  0  0  0  0  0  0  0  0  0
    3.2583   -0.5838    0.0000 C   0  0  0  0  0  0  0  0  0  0  0  0
    1.8083   -0.9680    0.0000 C   0  0  0  0  0  0  0  0  0  0  0  0
    1.4161   -2.4159    0.0000 O   0  0  0  0  0  0  0  0  0  0  0  0
   -1.7571    0.7749    0.0000 C   0  0  0  0  0  0  0  0  0  0  0  0
   -3.2071    0.3906    0.0000 C   0  0  0  0  0  0  0  0  0  0  0  0
   -3.5993   -1.0572    0.0000 O   0  0  0  0  0  0  0  0  0  0  0  0
   -4.2648    1.4542    0.0000 O   0  0  0  0  0  0  0  0  0  0  0  0
  2  1  1  6
  2  3  1  0
  3  4  2  0
  4  5  1  0
  5  6  2  0
  6  7  1  0
  7  8  2  0
  8  9  1  0
  2 10  1  0
 10 11  1  0
 11 12  2  0
 11 13  1  0
  8  3  1  0
M  END
>  <rName>  (1325) 
bAla_3SPh_2OH

>  <PQ_SYMBOL>  (1325) 
bAla_3SPh_2OH

>  <FULL_NAME>  (1325) 
(R)-3-amino-3-(2-hydroxyphenyl)propanoic acid

>  <IUPAC_CONDENSED>  (1325) 
bAla(3S-Ph(2-OH))

>  <IUPAC>  (1325) 
(3R)-3-amino-3-(2-hydroxyphenyl)propanoic acid

>  <TYPE>  (1325) 
Backbone

>  <CLASS>  (1325) 
beta

>  <ANALOG>  (1325) 
X

>  <MOL_WT>  (1325) 
181.19099999999995

>  <LOGP>  (1325) 
0.8667

>  <TPSA>  (1325) 
83.55

>  <POPULARITY>  (1325) 
8

>  <PROTECTED>  (1325) 
TRUE

>  <SMILES>  (1325) 
N[C@@H](c1(ccccc1O))CC(=O)O

>  <INCHIKEY>  (1325) 
BMUFWTKVAWBABX-SSDOTTSWSA-N

$$$$
bAla_3Snaphth1yl
     RDKit          2D

 16 17  0  0  0  0  0  0  0  0999 V2000
   -1.3768    1.6435    0.0000 N   0  0  0  0  0  0  0  0  0  0  0  0
   -1.3799    0.1435    0.0000 C   0  0  0  0  0  0  0  0  0  0  0  0
   -0.0825   -0.6092    0.0000 C   0  0  0  0  0  0  0  0  0  0  0  0
   -0.0856   -2.1092    0.0000 C   0  0  0  0  0  0  0  0  0  0  0  0
    1.2119   -2.8619    0.0000 C   0  0  0  0  0  0  0  0  0  0  0  0
    2.5125   -2.1146    0.0000 C   0  0  0  0  0  0  0  0  0  0  0  0
    2.5156   -0.6146    0.0000 C   0  0  0  0  0  0  0  0  0  0  0  0
    3.8162    0.1327    0.0000 C   0  0  0  0  0  0  0  0  0  0  0  0
    3.8193    1.6327    0.0000 C   0  0  0  0  0  0  0  0  0  0  0  0
    2.5218    2.3854    0.0000 C   0  0  0  0  0  0  0  0  0  0  0  0
    1.2213    1.6381    0.0000 C   0  0  0  0  0  0  0  0  0  0  0  0
    1.2181    0.1381    0.0000 C   0  0  0  0  0  0  0  0  0  0  0  0
   -2.6805   -0.6038    0.0000 C   0  0  0  0  0  0  0  0  0  0  0  0
   -3.9780    0.1489    0.0000 C   0  0  0  0  0  0  0  0  0  0  0  0
   -3.9749    1.6489    0.0000 O   0  0  0  0  0  0  0  0  0  0  0  0
   -5.2786   -0.5984    0.0000 O   0  0  0  0  0  0  0  0  0  0  0  0
  2  1  1  1
  2  3  1  0
  3  4  2  0
  4  5  1  0
  5  6  2  0
  6  7  1  0
  7  8  2  0
  8  9  1  0
  9 10  2  0
 10 11  1  0
 11 12  2  0
  2 13  1  0
 13 14  1  0
 14 15  2  0
 14 16  1  0
 12  7  1  0
 12  3  1  0
M  END
>  <rName>  (1326) 
bAla_3Snaphth1yl

>  <PQ_SYMBOL>  (1326) 
bAla_3Snaphth1yl

>  <FULL_NAME>  (1326) 
(R)-3-amino-3-(naphthalen-1-yl)propanoic acid

>  <IUPAC_CONDENSED>  (1326) 
bAla(3S-naphth-1-yl)

>  <IUPAC>  (1326) 
(3R)-3-amino-3-(naphthalen-1-yl)propanoic acid

>  <TYPE>  (1326) 
Backbone

>  <CLASS>  (1326) 
beta

>  <ANALOG>  (1326) 
X

>  <MOL_WT>  (1326) 
215.25199999999995

>  <LOGP>  (1326) 
2.3143000000000002

>  <TPSA>  (1326) 
63.32000000000001

>  <POPULARITY>  (1326) 
7.9

>  <PROTECTED>  (1326) 
TRUE

>  <SMILES>  (1326) 
N[C@@H](c2(cccc1(ccccc12)))CC(=O)O

>  <INCHIKEY>  (1326) 
BIOQBKBTOAMMDG-GFCCVEGCSA-N

$$$$
bAla_2RBn
     RDKit          2D

 13 13  0  0  0  0  0  0  0  0999 V2000
   -4.2270   -0.4748    0.0000 N   0  0  0  0  0  0  0  0  0  0  0  0
   -2.9684   -1.2908    0.0000 C   0  0  0  0  0  0  0  0  0  0  0  0
   -1.6324   -0.6089    0.0000 C   0  0  0  0  0  0  0  0  0  0  0  0
   -0.3738   -1.4249    0.0000 C   0  0  0  0  0  0  0  0  0  0  0  0
    0.9622   -0.7430    0.0000 C   0  0  0  0  0  0  0  0  0  0  0  0
    1.0396    0.7550    0.0000 C   0  0  0  0  0  0  0  0  0  0  0  0
    2.3756    1.4370    0.0000 C   0  0  0  0  0  0  0  0  0  0  0  0
    3.6342    0.6210    0.0000 C   0  0  0  0  0  0  0  0  0  0  0  0
    3.5568   -0.8770    0.0000 C   0  0  0  0  0  0  0  0  0  0  0  0
    2.2208   -1.5590    0.0000 C   0  0  0  0  0  0  0  0  0  0  0  0
   -1.5550    0.8891    0.0000 C   0  0  0  0  0  0  0  0  0  0  0  0
   -0.2190    1.5711    0.0000 O   0  0  0  0  0  0  0  0  0  0  0  0
   -2.8136    1.7052    0.0000 O   0  0  0  0  0  0  0  0  0  0  0  0
  1  2  1  0
  3  2  1  6
  3  4  1  0
  4  5  1  0
  5  6  2  0
  6  7  1  0
  7  8  2  0
  8  9  1  0
  9 10  2  0
  3 11  1  0
 11 12  2  0
 11 13  1  0
 10  5  1  0
M  END
>  <rName>  (1327) 
bAla_2RBn

>  <PQ_SYMBOL>  (1327) 
bAla_2RBn

>  <FULL_NAME>  (1327) 
(R)-3-amino-2-benzylpropanoic acid

>  <IUPAC_CONDENSED>  (1327) 
bAla(2R-Bn)

>  <IUPAC>  (1327) 
(2R)-3-amino-2-benzylpropanoic acid

>  <TYPE>  (1327) 
Backbone

>  <CLASS>  (1327) 
beta

>  <ANALOG>  (1327) 
Phe

>  <MOL_WT>  (1327) 
179.21899999999997

>  <LOGP>  (1327) 
0.8885999999999998

>  <TPSA>  (1327) 
63.32000000000001

>  <POPULARITY>  (1327) 
12.4

>  <PROTECTED>  (1327) 
TRUE

>  <SMILES>  (1327) 
NC[C@@H](Cc1(ccccc1))C(=O)O

>  <INCHIKEY>  (1327) 
DJYVEBBGKNAHKE-SECBINFHSA-N

$$$$
D-Tyr_26diMe
     RDKit          2D

 15 15  0  0  0  0  0  0  0  0999 V2000
   -1.7110    1.6830    0.0000 N   0  0  0  0  0  0  0  0  0  0  0  0
   -2.0873    0.2310    0.0000 C   0  0  0  0  0  0  0  0  0  0  0  0
   -1.0179   -0.8209    0.0000 C   0  0  0  0  0  0  0  0  0  0  0  0
    0.4277   -0.4208    0.0000 C   0  0  0  0  0  0  0  0  0  0  0  0
    0.8040    1.0313    0.0000 C   0  0  0  0  0  0  0  0  0  0  0  0
   -0.2654    2.0832    0.0000 C   0  0  0  0  0  0  0  0  0  0  0  0
    2.2497    1.4315    0.0000 C   0  0  0  0  0  0  0  0  0  0  0  0
    3.3190    0.3796    0.0000 C   0  0  0  0  0  0  0  0  0  0  0  0
    4.7647    0.7797    0.0000 O   0  0  0  0  0  0  0  0  0  0  0  0
    2.9428   -1.0725    0.0000 C   0  0  0  0  0  0  0  0  0  0  0  0
    1.4971   -1.4726    0.0000 C   0  0  0  0  0  0  0  0  0  0  0  0
    1.1209   -2.9247    0.0000 C   0  0  0  0  0  0  0  0  0  0  0  0
   -3.5329   -0.1692    0.0000 C   0  0  0  0  0  0  0  0  0  0  0  0
   -3.9092   -1.6212    0.0000 O   0  0  0  0  0  0  0  0  0  0  0  0
   -4.6023    0.8827    0.0000 O   0  0  0  0  0  0  0  0  0  0  0  0
  2  1  1  6
  2  3  1  0
  3  4  1  0
  4  5  2  0
  5  6  1  0
  5  7  1  0
  7  8  2  0
  8  9  1  0
  8 10  1  0
 10 11  2  0
 11 12  1  0
  2 13  1  0
 13 14  2  0
 13 15  1  0
 11  4  1  0
M  END
>  <rName>  (1328) 
D-Tyr_26diMe

>  <PQ_SYMBOL>  (1328) 
D-Tyr_26diMe

>  <FULL_NAME>  (1328) 
(R)-2-amino-3-(4-hydroxy-2,6-dimethylphenyl)propanoic acid

>  <IUPAC_CONDENSED>  (1328) 
D-Tyr(2,6-diMe)

>  <IUPAC>  (1328) 
(2R)-2-amino-3-(4-hydroxy-2,6-dimethylphenyl)propanoic acid

>  <TYPE>  (1328) 
Backbone

>  <CLASS>  (1328) 
alpha

>  <ANALOG>  (1328) 
Tyr

>  <MOL_WT>  (1328) 
209.24499999999998

>  <LOGP>  (1328) 
0.9634400000000001

>  <TPSA>  (1328) 
83.55

>  <POPULARITY>  (1328) 
6.7

>  <PROTECTED>  (1328) 
TRUE

>  <SMILES>  (1328) 
N[C@H](Cc1(c(C)cc(O)cc1C))C(=O)O

>  <INCHIKEY>  (1328) 
LSNDLIKCFHLFKO-SNVBAGLBSA-N

$$$$
aMeNva
     RDKit          2D

  9  8  0  0  0  0  0  0  0  0999 V2000
    0.4883    1.7705    0.0000 N   0  0  0  0  0  0  0  0  0  0  0  0
   -0.4082    0.5679    0.0000 C   0  0  0  0  0  0  0  0  0  0  0  0
   -1.6108    1.4643    0.0000 C   0  0  0  0  0  0  0  0  0  0  0  0
    0.7944   -0.3286    0.0000 C   0  0  0  0  0  0  0  0  0  0  0  0
    2.1721    0.2647    0.0000 C   0  0  0  0  0  0  0  0  0  0  0  0
    3.3748   -0.6318    0.0000 C   0  0  0  0  0  0  0  0  0  0  0  0
   -1.3047   -0.6348    0.0000 C   0  0  0  0  0  0  0  0  0  0  0  0
   -2.7944   -0.4597    0.0000 O   0  0  0  0  0  0  0  0  0  0  0  0
   -0.7114   -2.0125    0.0000 O   0  0  0  0  0  0  0  0  0  0  0  0
  1  2  1  0
  2  3  1  6
  2  4  1  0
  4  5  1  0
  5  6  1  0
  2  7  1  0
  7  8  2  0
  7  9  1  0
M  END
>  <rName>  (1329) 
aMeNva

>  <PQ_SYMBOL>  (1329) 
aMeNva

>  <FULL_NAME>  (1329) 
(S)-2-amino-2-methylpentanoic acid

>  <IUPAC_CONDENSED>  (1329) 
aMeNva

>  <IUPAC>  (1329) 
(2S)-2-amino-2-methylpentanoic acid

>  <TYPE>  (1329) 
Backbone

>  <CLASS>  (1329) 
alpha

>  <ANALOG>  (1329) 
Leu

>  <MOL_WT>  (1329) 
131.175

>  <LOGP>  (1329) 
0.5884999999999998

>  <TPSA>  (1329) 
63.32000000000001

>  <POPULARITY>  (1329) 
12.8

>  <PROTECTED>  (1329) 
TRUE

>  <SMILES>  (1329) 
N[C@@](C)(CCC)C(=O)O

>  <INCHIKEY>  (1329) 
HBJGLYBWNNQMOW-LURJTMIESA-N

$$$$
bAla_2SOH_3SPh_4Me
     RDKit          2D

 14 14  0  0  0  0  0  0  0  0999 V2000
   -1.3920   -2.0726    0.0000 N   0  0  0  0  0  0  0  0  0  0  0  0
   -0.9084   -0.6527    0.0000 C   0  0  0  0  0  0  0  0  0  0  0  0
    0.5630   -0.3615    0.0000 C   0  0  0  0  0  0  0  0  0  0  0  0
    1.0466    1.0584    0.0000 C   0  0  0  0  0  0  0  0  0  0  0  0
    2.5180    1.3496    0.0000 C   0  0  0  0  0  0  0  0  0  0  0  0
    3.5060    0.2209    0.0000 C   0  0  0  0  0  0  0  0  0  0  0  0
    4.9774    0.5121    0.0000 C   0  0  0  0  0  0  0  0  0  0  0  0
    3.0224   -1.1991    0.0000 C   0  0  0  0  0  0  0  0  0  0  0  0
    1.5509   -1.4902    0.0000 C   0  0  0  0  0  0  0  0  0  0  0  0
   -1.8963    0.4760    0.0000 C   0  0  0  0  0  0  0  0  0  0  0  0
   -1.4128    1.8959    0.0000 O   0  0  0  0  0  0  0  0  0  0  0  0
   -3.3678    0.1848    0.0000 C   0  0  0  0  0  0  0  0  0  0  0  0
   -3.8514   -1.2351    0.0000 O   0  0  0  0  0  0  0  0  0  0  0  0
   -4.3557    1.3135    0.0000 O   0  0  0  0  0  0  0  0  0  0  0  0
  2  1  1  6
  2  3  1  0
  3  4  1  0
  4  5  2  0
  5  6  1  0
  6  7  1  0
  6  8  2  0
  8  9  1  0
  2 10  1  0
 10 11  1  1
 10 12  1  0
 12 13  2  0
 12 14  1  0
  9  3  2  0
M  END
>  <rName>  (1330) 
bAla_2SOH_3SPh_4Me

>  <PQ_SYMBOL>  (1330) 
bAla_2SOH_3SPh_4Me

>  <FULL_NAME>  (1330) 
(2S,3S)-3-amino-2-hydroxy-3-(4-methylphenyl)propanoic acid

>  <IUPAC_CONDENSED>  (1330) 
bAla(2S-OH,3S-Ph(4-Me))

>  <IUPAC>  (1330) 
(2S,3S)-3-amino-2-hydroxy-3-(4-methylphenyl)propanoic acid

>  <TYPE>  (1330) 
Backbone

>  <CLASS>  (1330) 
beta

>  <ANALOG>  (1330) 
X

>  <MOL_WT>  (1330) 
195.218

>  <LOGP>  (1330) 
0.44032000000000004

>  <TPSA>  (1330) 
83.55

>  <POPULARITY>  (1330) 
4.4

>  <PROTECTED>  (1330) 
TRUE

>  <SMILES>  (1330) 
N[C@@H](c1(ccc(C)cc1))[C@H](O)C(=O)O

>  <INCHIKEY>  (1330) 
MXALXDNRLYPVEU-IUCAKERBSA-N

$$$$
Ser_Pyranose_RRSR
     RDKit          2D

 18 18  0  0  0  0  0  0  0  0999 V2000
   -3.8443   -1.9506    0.0000 N   0  0  0  0  0  0  0  0  0  0  0  0
   -3.5136   -0.4875    0.0000 C   0  0  0  0  0  0  0  0  0  0  0  0
   -2.0812   -0.0423    0.0000 C   0  0  0  0  0  0  0  0  0  0  0  0
   -0.9795   -1.0602    0.0000 O   0  0  0  0  0  0  0  0  0  0  0  0
    0.4529   -0.6150    0.0000 C   0  0  0  0  0  0  0  0  0  0  0  0
    0.7836    0.8481    0.0000 O   0  0  0  0  0  0  0  0  0  0  0  0
    2.2160    1.2933    0.0000 C   0  0  0  0  0  0  0  0  0  0  0  0
    2.5466    2.7564    0.0000 C   0  0  0  0  0  0  0  0  0  0  0  0
    1.4449    3.7743    0.0000 O   0  0  0  0  0  0  0  0  0  0  0  0
    3.3178    0.2754    0.0000 C   0  0  0  0  0  0  0  0  0  0  0  0
    4.7502    0.7206    0.0000 O   0  0  0  0  0  0  0  0  0  0  0  0
    2.9871   -1.1877    0.0000 C   0  0  0  0  0  0  0  0  0  0  0  0
    4.0889   -2.2056    0.0000 O   0  0  0  0  0  0  0  0  0  0  0  0
    1.5547   -1.6329    0.0000 C   0  0  0  0  0  0  0  0  0  0  0  0
    1.2240   -3.0960    0.0000 O   0  0  0  0  0  0  0  0  0  0  0  0
   -4.6154    0.5304    0.0000 C   0  0  0  0  0  0  0  0  0  0  0  0
   -4.2848    1.9935    0.0000 O   0  0  0  0  0  0  0  0  0  0  0  0
   -6.0478    0.0852    0.0000 O   0  0  0  0  0  0  0  0  0  0  0  0
  2  1  1  6
  2  3  1  0
  3  4  1  0
  5  4  1  6
  5  6  1  0
  6  7  1  0
  7  8  1  6
  8  9  1  0
  7 10  1  0
 10 11  1  6
 10 12  1  0
 12 13  1  6
 12 14  1  0
 14 15  1  1
  2 16  1  0
 16 17  2  0
 16 18  1  0
 14  5  1  0
M  END
>  <rName>  (1331) 
Ser_Pyranose_RRSR

>  <PQ_SYMBOL>  (1331) 
Ser_Pyranose_RRSR

>  <FULL_NAME>  (1331) 
O-((2R,3R,4S,5R,6R)-3,4,5-trihydroxy-6-(hydroxymethyl)tetrahydro-2H-pyran-2-yl)-L-serine

>  <IUPAC_CONDENSED>  (1331) 
Ser(Pyranose(RRSR))

>  <IUPAC>  (1331) 
(2S)-2-amino-3-(((2R,3R,4S,5R,6R)-3,4,5-trihydroxy-6-(hydroxymethyl)-oxan-2-yl)oxy)propanoic acid

>  <TYPE>  (1331) 
Backbone

>  <CLASS>  (1331) 
alpha

>  <ANALOG>  (1331) 
Ser

>  <MOL_WT>  (1331) 
267.234

>  <LOGP>  (1331) 
-3.785199999999998

>  <TPSA>  (1331) 
162.70000000000002

>  <POPULARITY>  (1331) 
4

>  <PROTECTED>  (1331) 
TRUE

>  <SMILES>  (1331) 
N[C@@H](CO[C@@H]1(O[C@H](CO)[C@H](O)[C@H](O)[C@H]1O))C(=O)O

>  <INCHIKEY>  (1331) 
HGTOXWOVJAONKK-PRBAGFKUSA-N

$$$$
D-Pro_4Samino
     RDKit          2D

  9  9  0  0  0  0  0  0  0  0999 V2000
   -0.1792   -1.4541    0.0000 N   0  0  0  0  0  0  0  0  0  0  0  0
    0.4598   -0.0969    0.0000 C   0  0  0  0  0  0  0  0  0  0  0  0
   -0.6334    0.9301    0.0000 C   0  0  0  0  0  0  0  0  0  0  0  0
   -1.9481    0.2077    0.0000 C   0  0  0  0  0  0  0  0  0  0  0  0
   -3.3052    0.8467    0.0000 N   0  0  0  0  0  0  0  0  0  0  0  0
   -1.6673   -1.2657    0.0000 C   0  0  0  0  0  0  0  0  0  0  0  0
    1.9333    0.1838    0.0000 C   0  0  0  0  0  0  0  0  0  0  0  0
    2.4269    1.6003    0.0000 O   0  0  0  0  0  0  0  0  0  0  0  0
    2.9132   -0.9519    0.0000 O   0  0  0  0  0  0  0  0  0  0  0  0
  1  2  1  0
  2  3  1  0
  3  4  1  0
  4  5  1  1
  4  6  1  0
  2  7  1  6
  7  8  2  0
  7  9  1  0
  6  1  1  0
M  END
>  <rName>  (1332) 
D-Pro_4Samino

>  <PQ_SYMBOL>  (1332) 
D-Pro_4Samino

>  <FULL_NAME>  (1332) 
(2R,4S)-4-aminopyrrolidine-2-carboxylic acid

>  <IUPAC_CONDENSED>  (1332) 
D-Pro(4S-amino)

>  <IUPAC>  (1332) 
(2R,4S)-4-aminopyrrolidine-2-carboxylic acid

>  <TYPE>  (1332) 
Backbone

>  <CLASS>  (1332) 
alpha

>  <ANALOG>  (1332) 
Pro

>  <MOL_WT>  (1332) 
130.14700000000002

>  <LOGP>  (1332) 
-1.2397999999999993

>  <TPSA>  (1332) 
75.35

>  <POPULARITY>  (1332) 
10.5

>  <PROTECTED>  (1332) 
TRUE

>  <SMILES>  (1332) 
N1[C@H](C[C@H](N)C1)C(=O)O

>  <INCHIKEY>  (1332) 
SHINASQYHDCLEU-IUYQGCFVSA-N

$$$$
bAla_3naphth1yl
     RDKit          2D

 16 17  0  0  0  0  0  0  0  0999 V2000
   -1.3768    1.6435    0.0000 N   0  0  0  0  0  0  0  0  0  0  0  0
   -1.3799    0.1435    0.0000 C   0  0  0  0  0  0  0  0  0  0  0  0
   -0.0825   -0.6092    0.0000 C   0  0  0  0  0  0  0  0  0  0  0  0
   -0.0856   -2.1092    0.0000 C   0  0  0  0  0  0  0  0  0  0  0  0
    1.2119   -2.8619    0.0000 C   0  0  0  0  0  0  0  0  0  0  0  0
    2.5125   -2.1146    0.0000 C   0  0  0  0  0  0  0  0  0  0  0  0
    2.5156   -0.6146    0.0000 C   0  0  0  0  0  0  0  0  0  0  0  0
    3.8162    0.1327    0.0000 C   0  0  0  0  0  0  0  0  0  0  0  0
    3.8193    1.6327    0.0000 C   0  0  0  0  0  0  0  0  0  0  0  0
    2.5218    2.3854    0.0000 C   0  0  0  0  0  0  0  0  0  0  0  0
    1.2213    1.6381    0.0000 C   0  0  0  0  0  0  0  0  0  0  0  0
    1.2181    0.1381    0.0000 C   0  0  0  0  0  0  0  0  0  0  0  0
   -2.6805   -0.6038    0.0000 C   0  0  0  0  0  0  0  0  0  0  0  0
   -3.9780    0.1489    0.0000 C   0  0  0  0  0  0  0  0  0  0  0  0
   -3.9749    1.6489    0.0000 O   0  0  0  0  0  0  0  0  0  0  0  0
   -5.2786   -0.5984    0.0000 O   0  0  0  0  0  0  0  0  0  0  0  0
  1  2  1  0
  2  3  1  0
  3  4  2  0
  4  5  1  0
  5  6  2  0
  6  7  1  0
  7  8  2  0
  8  9  1  0
  9 10  2  0
 10 11  1  0
 11 12  2  0
  2 13  1  0
 13 14  1  0
 14 15  2  0
 14 16  1  0
 12  3  1  0
 12  7  1  0
M  END
>  <rName>  (1333) 
bAla_3naphth1yl

>  <PQ_SYMBOL>  (1333) 
bAla_3naphth1yl

>  <FULL_NAME>  (1333) 
3-amino-3-naphthalen-1-ylpropanoic acid

>  <IUPAC_CONDENSED>  (1333) 
bAla(3-naphth-1-yl)

>  <IUPAC>  (1333) 
3-amino-3-(naphthalen-1-yl)propanoic acid

>  <TYPE>  (1333) 
Backbone

>  <CLASS>  (1333) 
beta

>  <ANALOG>  (1333) 
X

>  <MOL_WT>  (1333) 
215.25199999999995

>  <LOGP>  (1333) 
2.3143000000000002

>  <TPSA>  (1333) 
63.32000000000001

>  <POPULARITY>  (1333) 
8.2

>  <PROTECTED>  (1333) 
TRUE

>  <SMILES>  (1333) 
NC(c1(cccc2(ccccc12)))CC(=O)O

>  <INCHIKEY>  (1333) 
BIOQBKBTOAMMDG-UHFFFAOYSA-N

$$$$
piperidin-4-ylAc
     RDKit          2D

 10 10  0  0  0  0  0  0  0  0999 V2000
   -3.0048   -0.4910    0.0000 N   0  0  0  0  0  0  0  0  0  0  0  0
   -2.7213    0.9820    0.0000 C   0  0  0  0  0  0  0  0  0  0  0  0
   -1.3040    1.4730    0.0000 C   0  0  0  0  0  0  0  0  0  0  0  0
   -0.1701    0.4910    0.0000 C   0  0  0  0  0  0  0  0  0  0  0  0
   -0.4536   -0.9820    0.0000 C   0  0  0  0  0  0  0  0  0  0  0  0
   -1.8709   -1.4730    0.0000 C   0  0  0  0  0  0  0  0  0  0  0  0
    1.2473    0.9820    0.0000 C   0  0  0  0  0  0  0  0  0  0  0  0
    2.3812   -0.0000    0.0000 C   0  0  0  0  0  0  0  0  0  0  0  0
    2.0977   -1.4730    0.0000 O   0  0  0  0  0  0  0  0  0  0  0  0
    3.7985    0.4910    0.0000 O   0  0  0  0  0  0  0  0  0  0  0  0
  1  2  1  0
  2  3  1  0
  3  4  1  0
  4  5  1  0
  5  6  1  0
  4  7  1  0
  7  8  1  0
  8  9  2  0
  8 10  1  0
  6  1  1  0
M  END
>  <rName>  (1334) 
piperidin-4-ylAc

>  <PQ_SYMBOL>  (1334) 
piperidin-4-ylAc

>  <FULL_NAME>  (1334) 
2-(piperidin-4-yl)acetic acid

>  <IUPAC_CONDENSED>  (1334) 
piperidin-4-ylAc

>  <IUPAC>  (1334) 
2-(piperidin-4-yl)acetic acid

>  <TYPE>  (1334) 
Backbone

>  <CLASS>  (1334) 
delta

>  <ANALOG>  (1334) 
Pro

>  <MOL_WT>  (1334) 
143.186

>  <LOGP>  (1334) 
0.46069999999999983

>  <TPSA>  (1334) 
49.33

>  <POPULARITY>  (1334) 
16.5

>  <PROTECTED>  (1334) 
TRUE

>  <SMILES>  (1334) 
N1CCC(CC1)CC(=O)O

>  <INCHIKEY>  (1334) 
YFNOTMRKVGZZNF-UHFFFAOYSA-N

$$$$
bPro_R
     RDKit          2D

  8  8  0  0  0  0  0  0  0  0999 V2000
   -2.2608   -0.7500    0.0000 N   0  0  0  0  0  0  0  0  0  0  0  0
   -0.8342   -1.2135    0.0000 C   0  0  0  0  0  0  0  0  0  0  0  0
    0.0475    0.0000    0.0000 C   0  0  0  0  0  0  0  0  0  0  0  0
   -0.8342    1.2135    0.0000 C   0  0  0  0  0  0  0  0  0  0  0  0
   -2.2608    0.7500    0.0000 C   0  0  0  0  0  0  0  0  0  0  0  0
    1.5475    0.0000    0.0000 C   0  0  0  0  0  0  0  0  0  0  0  0
    2.2975    1.2990    0.0000 O   0  0  0  0  0  0  0  0  0  0  0  0
    2.2975   -1.2990    0.0000 O   0  0  0  0  0  0  0  0  0  0  0  0
  1  2  1  0
  2  3  1  0
  3  4  1  0
  4  5  1  0
  3  6  1  1
  6  7  2  0
  6  8  1  0
  5  1  1  0
M  END
>  <rName>  (1335) 
bPro_R

>  <PQ_SYMBOL>  (1335) 
bPro_R

>  <FULL_NAME>  (1335) 
(R)-pyrrolidine-3-carboxylic acid

>  <IUPAC_CONDENSED>  (1335) 
bPro(R)

>  <IUPAC>  (1335) 
(3R)-pyrrolidine-3-carboxylic acid

>  <TYPE>  (1335) 
Backbone

>  <CLASS>  (1335) 
beta

>  <ANALOG>  (1335) 
Pro

>  <MOL_WT>  (1335) 
115.13199999999999

>  <LOGP>  (1335) 
-0.31949999999999995

>  <TPSA>  (1335) 
49.33

>  <POPULARITY>  (1335) 
13.2

>  <PROTECTED>  (1335) 
TRUE

>  <SMILES>  (1335) 
N1C[C@@H](CC1)C(=O)O

>  <INCHIKEY>  (1335) 
JAEIBKXSIXOLOL-SCSAIBSYSA-N

$$$$
bPro_S
     RDKit          2D

  8  8  0  0  0  0  0  0  0  0999 V2000
   -2.2608   -0.7500    0.0000 N   0  0  0  0  0  0  0  0  0  0  0  0
   -0.8342   -1.2135    0.0000 C   0  0  0  0  0  0  0  0  0  0  0  0
    0.0475    0.0000    0.0000 C   0  0  0  0  0  0  0  0  0  0  0  0
   -0.8342    1.2135    0.0000 C   0  0  0  0  0  0  0  0  0  0  0  0
   -2.2608    0.7500    0.0000 C   0  0  0  0  0  0  0  0  0  0  0  0
    1.5475    0.0000    0.0000 C   0  0  0  0  0  0  0  0  0  0  0  0
    2.2975    1.2990    0.0000 O   0  0  0  0  0  0  0  0  0  0  0  0
    2.2975   -1.2990    0.0000 O   0  0  0  0  0  0  0  0  0  0  0  0
  1  2  1  0
  2  3  1  0
  3  4  1  0
  4  5  1  0
  3  6  1  6
  6  7  2  0
  6  8  1  0
  5  1  1  0
M  END
>  <rName>  (1336) 
bPro_S

>  <PQ_SYMBOL>  (1336) 
bPro_S

>  <FULL_NAME>  (1336) 
(S)-pyrrolidine-3-carboxylic acid

>  <IUPAC_CONDENSED>  (1336) 
bPro(S)

>  <IUPAC>  (1336) 
(3S)-pyrrolidine-3-carboxylic acid

>  <TYPE>  (1336) 
Backbone

>  <CLASS>  (1336) 
beta

>  <ANALOG>  (1336) 
Pro

>  <MOL_WT>  (1336) 
115.13199999999999

>  <LOGP>  (1336) 
-0.31949999999999995

>  <TPSA>  (1336) 
49.33

>  <POPULARITY>  (1336) 
12

>  <PROTECTED>  (1336) 
TRUE

>  <SMILES>  (1336) 
N1C[C@H](CC1)C(=O)O

>  <INCHIKEY>  (1336) 
JAEIBKXSIXOLOL-BYPYZUCNSA-N

$$$$
Pro_5RPh
     RDKit          2D

 14 15  0  0  0  0  0  0  0  0999 V2000
   -1.0138    0.6092    0.0000 N   0  0  0  0  0  0  0  0  0  0  0  0
   -2.3178   -0.1320    0.0000 C   0  0  0  0  0  0  0  0  0  0  0  0
   -2.0158   -1.6013    0.0000 C   0  0  0  0  0  0  0  0  0  0  0  0
   -0.5251   -1.7681    0.0000 C   0  0  0  0  0  0  0  0  0  0  0  0
    0.0942   -0.4019    0.0000 C   0  0  0  0  0  0  0  0  0  0  0  0
    1.5635   -0.0999    0.0000 C   0  0  0  0  0  0  0  0  0  0  0  0
    2.5597   -1.2213    0.0000 C   0  0  0  0  0  0  0  0  0  0  0  0
    4.0290   -0.9192    0.0000 C   0  0  0  0  0  0  0  0  0  0  0  0
    4.5020    0.5042    0.0000 C   0  0  0  0  0  0  0  0  0  0  0  0
    3.5058    1.6256    0.0000 C   0  0  0  0  0  0  0  0  0  0  0  0
    2.0365    1.3236    0.0000 C   0  0  0  0  0  0  0  0  0  0  0  0
   -3.6840    0.4872    0.0000 C   0  0  0  0  0  0  0  0  0  0  0  0
   -4.9034   -0.3863    0.0000 O   0  0  0  0  0  0  0  0  0  0  0  0
   -3.8308    1.9800    0.0000 O   0  0  0  0  0  0  0  0  0  0  0  0
  1  2  1  0
  2  3  1  0
  3  4  1  0
  4  5  1  0
  5  6  1  1
  6  7  2  0
  7  8  1  0
  8  9  2  0
  9 10  1  0
 10 11  2  0
  2 12  1  1
 12 13  2  0
 12 14  1  0
  5  1  1  0
 11  6  1  0
M  END
>  <rName>  (1337) 
Pro_5RPh

>  <PQ_SYMBOL>  (1337) 
Pro_5RPh

>  <FULL_NAME>  (1337) 
(2S,5R)-5-phenylpyrrolidine-2-carboxylic acid

>  <IUPAC_CONDENSED>  (1337) 
Pro(5R-Ph)

>  <IUPAC>  (1337) 
(2S,5R)-5-phenylpyrrolidine-2-carboxylic acid

>  <TYPE>  (1337) 
Backbone

>  <CLASS>  (1337) 
alpha

>  <ANALOG>  (1337) 
Pro

>  <MOL_WT>  (1337) 
191.23

>  <LOGP>  (1337) 
1.5642999999999998

>  <TPSA>  (1337) 
49.33

>  <POPULARITY>  (1337) 
10.5

>  <PROTECTED>  (1337) 
TRUE

>  <SMILES>  (1337) 
N1[C@@H](CC[C@@H]1c2(ccccc2))C(=O)O

>  <INCHIKEY>  (1337) 
SMWADGDVGCZIGK-ZJUUUORDSA-N

$$$$
Abu_iPr
     RDKit          2D

 10  9  0  0  0  0  0  0  0  0999 V2000
    1.2717    1.9622    0.0000 N   0  0  0  0  0  0  0  0  0  0  0  0
    1.1946    0.4642    0.0000 C   0  0  0  0  0  0  0  0  0  0  0  0
   -0.1413   -0.2180    0.0000 C   0  0  0  0  0  0  0  0  0  0  0  0
   -1.4001    0.5978    0.0000 C   0  0  0  0  0  0  0  0  0  0  0  0
   -2.7359   -0.0845    0.0000 C   0  0  0  0  0  0  0  0  0  0  0  0
   -3.9947    0.7313    0.0000 C   0  0  0  0  0  0  0  0  0  0  0  0
   -2.8131   -1.5825    0.0000 C   0  0  0  0  0  0  0  0  0  0  0  0
    2.4533   -0.3516    0.0000 C   0  0  0  0  0  0  0  0  0  0  0  0
    2.3762   -1.8496    0.0000 O   0  0  0  0  0  0  0  0  0  0  0  0
    3.7892    0.3306    0.0000 O   0  0  0  0  0  0  0  0  0  0  0  0
  2  1  1  6
  2  3  1  0
  3  4  1  0
  4  5  2  0
  5  6  1  0
  5  7  1  0
  2  8  1  0
  8  9  2  0
  8 10  1  0
M  END
>  <rName>  (1338) 
Abu_iPr

>  <PQ_SYMBOL>  (1338) 
Abu_iPr

>  <FULL_NAME>  (1338) 
(S)-2-amino-5-methylhex-4-enoic acid

>  <IUPAC_CONDENSED>  (1338) 
Abu(iPr)

>  <IUPAC>  (1338) 
(2S)-2-amino-5-methylhex-4-enoic acid

>  <TYPE>  (1338) 
Backbone

>  <CLASS>  (1338) 
alpha

>  <ANALOG>  (1338) 
Leu

>  <MOL_WT>  (1338) 
143.186

>  <LOGP>  (1338) 
0.7545999999999999

>  <TPSA>  (1338) 
63.32000000000001

>  <POPULARITY>  (1338) 
6.5

>  <PROTECTED>  (1338) 
TRUE

>  <SMILES>  (1338) 
N[C@@H](CC=C(C)C)C(=O)O

>  <INCHIKEY>  (1338) 
XRARHOAIGIRUNR-LURJTMIESA-N

$$$$
b-4-oxa-Ac6c
     RDKit          2D

 11 11  0  0  0  0  0  0  0  0999 V2000
    0.8408   -1.1159    0.0000 N   0  0  0  0  0  0  0  0  0  0  0  0
   -0.2224   -0.0578    0.0000 C   0  0  0  0  0  0  0  0  0  0  0  0
   -1.0798   -1.2885    0.0000 C   0  0  0  0  0  0  0  0  0  0  0  0
   -2.5744   -1.1613    0.0000 C   0  0  0  0  0  0  0  0  0  0  0  0
   -3.2116    0.1967    0.0000 O   0  0  0  0  0  0  0  0  0  0  0  0
   -2.3541    1.4274    0.0000 C   0  0  0  0  0  0  0  0  0  0  0  0
   -0.8595    1.3002    0.0000 C   0  0  0  0  0  0  0  0  0  0  0  0
    1.0043    0.8055    0.0000 C   0  0  0  0  0  0  0  0  0  0  0  0
    2.3653    0.1748    0.0000 C   0  0  0  0  0  0  0  0  0  0  0  0
    2.4995   -1.3192    0.0000 O   0  0  0  0  0  0  0  0  0  0  0  0
    3.5920    1.0381    0.0000 O   0  0  0  0  0  0  0  0  0  0  0  0
  1  2  1  0
  2  3  1  0
  3  4  1  0
  4  5  1  0
  5  6  1  0
  6  7  1  0
  2  8  1  0
  8  9  1  0
  9 10  2  0
  9 11  1  0
  7  2  1  0
M  END
>  <rName>  (1339) 
b-4-oxa-Ac6c

>  <PQ_SYMBOL>  (1339) 
b-4-oxa-Ac6c

>  <FULL_NAME>  (1339) 
2-(4-aminotetrahydro-2H-pyran-4-yl)acetic acid

>  <IUPAC_CONDENSED>  (1339) 
b-4-oxa-Ac6c

>  <IUPAC>  (1339) 
2-(4-amino-oxan-4-yl)acetic acid

>  <TYPE>  (1339) 
Backbone

>  <CLASS>  (1339) 
beta

>  <ANALOG>  (1339) 
Ser

>  <MOL_WT>  (1339) 
159.185

>  <LOGP>  (1339) 
-0.031000000000000638

>  <TPSA>  (1339) 
72.55

>  <POPULARITY>  (1339) 
8.4

>  <PROTECTED>  (1339) 
TRUE

>  <SMILES>  (1339) 
NC1(CCOCC1)CC(=O)O

>  <INCHIKEY>  (1339) 
QRIAWCUEIMQLGG-UHFFFAOYSA-N

$$$$
b-4-thia-Ac6c
     RDKit          2D

 11 11  0  0  0  0  0  0  0  0999 V2000
    0.8408   -1.1159    0.0000 N   0  0  0  0  0  0  0  0  0  0  0  0
   -0.2224   -0.0578    0.0000 C   0  0  0  0  0  0  0  0  0  0  0  0
   -1.0798   -1.2885    0.0000 C   0  0  0  0  0  0  0  0  0  0  0  0
   -2.5744   -1.1613    0.0000 C   0  0  0  0  0  0  0  0  0  0  0  0
   -3.2116    0.1967    0.0000 S   0  0  0  0  0  0  0  0  0  0  0  0
   -2.3541    1.4274    0.0000 C   0  0  0  0  0  0  0  0  0  0  0  0
   -0.8595    1.3002    0.0000 C   0  0  0  0  0  0  0  0  0  0  0  0
    1.0043    0.8055    0.0000 C   0  0  0  0  0  0  0  0  0  0  0  0
    2.3653    0.1748    0.0000 C   0  0  0  0  0  0  0  0  0  0  0  0
    2.4995   -1.3192    0.0000 O   0  0  0  0  0  0  0  0  0  0  0  0
    3.5920    1.0381    0.0000 O   0  0  0  0  0  0  0  0  0  0  0  0
  1  2  1  0
  2  3  1  0
  3  4  1  0
  4  5  1  0
  5  6  1  0
  6  7  1  0
  2  8  1  0
  8  9  1  0
  9 10  2  0
  9 11  1  0
  7  2  1  0
M  END
>  <rName>  (1340) 
b-4-thia-Ac6c

>  <PQ_SYMBOL>  (1340) 
b-4-thia-Ac6c

>  <FULL_NAME>  (1340) 
2-(4-aminotetrahydro-2H-thiopyran-4-yl)acetic acid

>  <IUPAC_CONDENSED>  (1340) 
b-4-thia-Ac6c

>  <IUPAC>  (1340) 
2-(4-amino-thian-4-yl)acetic acid

>  <TYPE>  (1340) 
Backbone

>  <CLASS>  (1340) 
beta

>  <ANALOG>  (1340) 
Met

>  <MOL_WT>  (1340) 
175.253

>  <LOGP>  (1340) 
0.6856

>  <TPSA>  (1340) 
63.32000000000001

>  <POPULARITY>  (1340) 
8.1

>  <PROTECTED>  (1340) 
TRUE

>  <SMILES>  (1340) 
NC1(CCSCC1)CC(=O)O

>  <INCHIKEY>  (1340) 
AGEPUGUICFKKBP-UHFFFAOYSA-N

$$$$
NCF3CH2-G
     RDKit          2D

 10  9  0  0  0  0  0  0  0  0999 V2000
   -0.2598    0.0000    0.0000 N   0  0  0  0  0  0  0  0  0  0  0  0
    1.0392   -0.7500    0.0000 C   0  0  0  0  0  0  0  0  0  0  0  0
    2.3383   -0.0000    0.0000 C   0  0  0  0  0  0  0  0  0  0  0  0
    3.6373    0.7500    0.0000 F   0  0  0  0  0  0  0  0  0  0  0  0
    3.0883   -1.2990    0.0000 F   0  0  0  0  0  0  0  0  0  0  0  0
    1.5883    1.2990    0.0000 F   0  0  0  0  0  0  0  0  0  0  0  0
   -1.5588   -0.7500    0.0000 C   0  0  0  0  0  0  0  0  0  0  0  0
   -2.8579    0.0000    0.0000 C   0  0  0  0  0  0  0  0  0  0  0  0
   -2.8579    1.5000    0.0000 O   0  0  0  0  0  0  0  0  0  0  0  0
   -4.1569   -0.7500    0.0000 O   0  0  0  0  0  0  0  0  0  0  0  0
  1  2  1  0
  2  3  1  0
  3  4  1  0
  3  5  1  0
  3  6  1  0
  1  7  1  0
  7  8  1  0
  8  9  2  0
  8 10  1  0
M  END
>  <rName>  (1341) 
NCF3CH2-G

>  <PQ_SYMBOL>  (1341) 
NCF3CH2-G

>  <FULL_NAME>  (1341) 
(2,2,2-trifluoroethyl)glycine

>  <IUPAC_CONDENSED>  (1341) 
CF3CH2-Gly

>  <IUPAC>  (1341) 
2-((2,2,2-trifluoroethyl)amino)acetic acid

>  <TYPE>  (1341) 
Backbone

>  <CLASS>  (1341) 
alpha

>  <ANALOG>  (1341) 
Gly

>  <MOL_WT>  (1341) 
157.091

>  <LOGP>  (1341) 
0.22289999999999982

>  <TPSA>  (1341) 
49.33

>  <POPULARITY>  (1341) 
10.9

>  <PROTECTED>  (1341) 
TRUE

>  <SMILES>  (1341) 
N(CC(F)(F)F)CC(=O)O

>  <INCHIKEY>  (1341) 
ULINGFKOGLHDJP-UHFFFAOYSA-N

$$$$
hPhe_3F
     RDKit          2D

 14 14  0  0  0  0  0  0  0  0999 V2000
   -2.9179   -2.0082    0.0000 N   0  0  0  0  0  0  0  0  0  0  0  0
   -2.7604   -0.5165    0.0000 C   0  0  0  0  0  0  0  0  0  0  0  0
   -1.3898    0.0929    0.0000 C   0  0  0  0  0  0  0  0  0  0  0  0
   -0.1767   -0.7894    0.0000 C   0  0  0  0  0  0  0  0  0  0  0  0
    1.1939   -0.1800    0.0000 C   0  0  0  0  0  0  0  0  0  0  0  0
    1.3515    1.3117    0.0000 C   0  0  0  0  0  0  0  0  0  0  0  0
    2.7221    1.9211    0.0000 C   0  0  0  0  0  0  0  0  0  0  0  0
    3.9352    1.0388    0.0000 C   0  0  0  0  0  0  0  0  0  0  0  0
    3.7777   -0.4529    0.0000 C   0  0  0  0  0  0  0  0  0  0  0  0
    4.9907   -1.3352    0.0000 F   0  0  0  0  0  0  0  0  0  0  0  0
    2.4070   -1.0623    0.0000 C   0  0  0  0  0  0  0  0  0  0  0  0
   -3.9735    0.3658    0.0000 C   0  0  0  0  0  0  0  0  0  0  0  0
   -3.8159    1.8575    0.0000 O   0  0  0  0  0  0  0  0  0  0  0  0
   -5.3441   -0.2436    0.0000 O   0  0  0  0  0  0  0  0  0  0  0  0
  2  1  1  6
  2  3  1  0
  3  4  1  0
  4  5  1  0
  5  6  2  0
  6  7  1  0
  7  8  2  0
  8  9  1  0
  9 10  1  0
  9 11  2  0
  2 12  1  0
 12 13  2  0
 12 14  1  0
 11  5  1  0
M  END
>  <rName>  (1342) 
hPhe_3F

>  <PQ_SYMBOL>  (1342) 
hPhe_3F

>  <FULL_NAME>  (1342) 
(S)-2-amino-4-(3-fluorophenyl)butanoic acid

>  <IUPAC_CONDENSED>  (1342) 
hPhe(3-F)

>  <IUPAC>  (1342) 
(2S)-2-amino-4-(3-fluorophenyl)butanoic acid

>  <TYPE>  (1342) 
Backbone

>  <CLASS>  (1342) 
alpha

>  <ANALOG>  (1342) 
Phe

>  <MOL_WT>  (1342) 
197.20899999999997

>  <LOGP>  (1342) 
1.1702

>  <TPSA>  (1342) 
63.32000000000001

>  <POPULARITY>  (1342) 
6.6

>  <PROTECTED>  (1342) 
TRUE

>  <SMILES>  (1342) 
N[C@@H](CCc1(cccc(F)c1))C(=O)O

>  <INCHIKEY>  (1342) 
IBUPJVAZBFPWLJ-VIFPVBQESA-N

$$$$
hPhe_2CF3
     RDKit          2D

 17 17  0  0  0  0  0  0  0  0999 V2000
   -2.8723   -1.8951    0.0000 N   0  0  0  0  0  0  0  0  0  0  0  0
   -2.9617   -0.3978    0.0000 C   0  0  0  0  0  0  0  0  0  0  0  0
   -1.7097    0.4283    0.0000 C   0  0  0  0  0  0  0  0  0  0  0  0
   -0.3682   -0.2430    0.0000 C   0  0  0  0  0  0  0  0  0  0  0  0
    0.8838    0.5831    0.0000 C   0  0  0  0  0  0  0  0  0  0  0  0
    0.7944    2.0805    0.0000 C   0  0  0  0  0  0  0  0  0  0  0  0
    2.0464    2.9065    0.0000 C   0  0  0  0  0  0  0  0  0  0  0  0
    3.3879    2.2353    0.0000 C   0  0  0  0  0  0  0  0  0  0  0  0
    3.4772    0.7379    0.0000 C   0  0  0  0  0  0  0  0  0  0  0  0
    2.2252   -0.0881    0.0000 C   0  0  0  0  0  0  0  0  0  0  0  0
    2.3146   -1.5855    0.0000 C   0  0  0  0  0  0  0  0  0  0  0  0
    2.4040   -3.0828    0.0000 F   0  0  0  0  0  0  0  0  0  0  0  0
    3.8119   -1.4961    0.0000 F   0  0  0  0  0  0  0  0  0  0  0  0
    0.8173   -1.6749    0.0000 F   0  0  0  0  0  0  0  0  0  0  0  0
   -4.3031    0.2735    0.0000 C   0  0  0  0  0  0  0  0  0  0  0  0
   -4.3925    1.7708    0.0000 O   0  0  0  0  0  0  0  0  0  0  0  0
   -5.5552   -0.5526    0.0000 O   0  0  0  0  0  0  0  0  0  0  0  0
  2  1  1  6
  2  3  1  0
  3  4  1  0
  4  5  1  0
  5  6  2  0
  6  7  1  0
  7  8  2  0
  8  9  1  0
  9 10  2  0
 10 11  1  0
 11 12  1  0
 11 13  1  0
 11 14  1  0
  2 15  1  0
 15 16  2  0
 15 17  1  0
 10  5  1  0
M  END
>  <rName>  (1343) 
hPhe_2CF3

>  <PQ_SYMBOL>  (1343) 
hPhe_2CF3

>  <FULL_NAME>  (1343) 
(S)-2-amino-4-(2-(trifluoromethyl)phenyl)butanoic acid

>  <IUPAC_CONDENSED>  (1343) 
hPhe(2-CF3)

>  <IUPAC>  (1343) 
(2S)-2-amino-4-(2-(trifluoromethyl)phenyl)butanoic acid

>  <TYPE>  (1343) 
Backbone

>  <CLASS>  (1343) 
alpha

>  <ANALOG>  (1343) 
Phe

>  <MOL_WT>  (1343) 
247.21599999999992

>  <LOGP>  (1343) 
2.0499

>  <TPSA>  (1343) 
63.32000000000001

>  <POPULARITY>  (1343) 
3.4

>  <PROTECTED>  (1343) 
TRUE

>  <SMILES>  (1343) 
N[C@@H](CCc1(ccccc1C(F)(F)F))C(=O)O

>  <INCHIKEY>  (1343) 
BCXGVVUDFMBXEM-VIFPVBQESA-N

$$$$
4-aza-Ac6c_Me
     RDKit          2D

 11 11  0  0  0  0  0  0  0  0999 V2000
    1.6249   -1.5175    0.0000 N   0  0  0  0  0  0  0  0  0  0  0  0
    0.6516   -0.3762    0.0000 C   0  0  0  0  0  0  0  0  0  0  0  0
   -0.3034   -1.5329    0.0000 C   0  0  0  0  0  0  0  0  0  0  0  0
   -1.7826   -1.2842    0.0000 C   0  0  0  0  0  0  0  0  0  0  0  0
   -2.3069    0.1212    0.0000 N   0  0  0  0  0  0  0  0  0  0  0  0
   -3.7861    0.3699    0.0000 C   0  0  0  0  0  0  0  0  0  0  0  0
   -1.3519    1.2779    0.0000 C   0  0  0  0  0  0  0  0  0  0  0  0
    0.1274    1.0292    0.0000 C   0  0  0  0  0  0  0  0  0  0  0  0
    1.9446    0.3841    0.0000 C   0  0  0  0  0  0  0  0  0  0  0  0
    1.9327    1.8841    0.0000 O   0  0  0  0  0  0  0  0  0  0  0  0
    3.2496   -0.3555    0.0000 O   0  0  0  0  0  0  0  0  0  0  0  0
  1  2  1  0
  2  3  1  0
  3  4  1  0
  4  5  1  0
  5  6  1  0
  5  7  1  0
  7  8  1  0
  2  9  1  0
  9 10  2  0
  9 11  1  0
  8  2  1  0
M  END
>  <rName>  (1344) 
4-aza-Ac6c_Me

>  <PQ_SYMBOL>  (1344) 
4-aza-Ac6c_Me

>  <FULL_NAME>  (1344) 
4-amino-1-methylpiperidine-4-carboxylic acid

>  <IUPAC_CONDENSED>  (1344) 
4-aza-Ac6c(Me)

>  <IUPAC>  (1344) 
4-amino-1-methylpiperidine-4-carboxylic acid

>  <TYPE>  (1344) 
Backbone

>  <CLASS>  (1344) 
alpha

>  <ANALOG>  (1344) 
X

>  <MOL_WT>  (1344) 
158.201

>  <LOGP>  (1344) 
-0.5059

>  <TPSA>  (1344) 
66.56

>  <POPULARITY>  (1344) 
12.7

>  <PROTECTED>  (1344) 
TRUE

>  <SMILES>  (1344) 
NC1(CCN(C)CC1)C(=O)O

>  <INCHIKEY>  (1344) 
PRROBIIYGSUPNR-UHFFFAOYSA-N

$$$$
bAla_3SPh245triFmethyl
     RDKit          2D

 16 16  0  0  0  0  0  0  0  0999 V2000
   -1.5978    1.2314    0.0000 N   0  0  0  0  0  0  0  0  0  0  0  0
   -1.8564   -0.2461    0.0000 C   0  0  0  0  0  0  0  0  0  0  0  0
   -0.7061   -1.2089    0.0000 C   0  0  0  0  0  0  0  0  0  0  0  0
    0.7028   -0.6941    0.0000 C   0  0  0  0  0  0  0  0  0  0  0  0
    0.9614    0.7835    0.0000 C   0  0  0  0  0  0  0  0  0  0  0  0
    2.3703    1.2983    0.0000 C   0  0  0  0  0  0  0  0  0  0  0  0
    2.6289    2.7758    0.0000 F   0  0  0  0  0  0  0  0  0  0  0  0
    3.5205    0.3356    0.0000 C   0  0  0  0  0  0  0  0  0  0  0  0
    4.9294    0.8504    0.0000 F   0  0  0  0  0  0  0  0  0  0  0  0
    3.2619   -1.1420    0.0000 C   0  0  0  0  0  0  0  0  0  0  0  0
    1.8531   -1.6568    0.0000 C   0  0  0  0  0  0  0  0  0  0  0  0
    1.5944   -3.1343    0.0000 F   0  0  0  0  0  0  0  0  0  0  0  0
   -3.2653   -0.7610    0.0000 C   0  0  0  0  0  0  0  0  0  0  0  0
   -4.4156    0.2018    0.0000 C   0  0  0  0  0  0  0  0  0  0  0  0
   -4.1570    1.6793    0.0000 O   0  0  0  0  0  0  0  0  0  0  0  0
   -5.8245   -0.3130    0.0000 O   0  0  0  0  0  0  0  0  0  0  0  0
  2  1  1  1
  2  3  1  0
  3  4  1  0
  4  5  1  0
  5  6  2  0
  6  7  1  0
  6  8  1  0
  8  9  1  0
  8 10  2  0
 10 11  1  0
 11 12  1  0
  2 13  1  0
 13 14  1  0
 14 15  2  0
 14 16  1  0
 11  4  2  0
M  END
>  <rName>  (1345) 
bAla_3SPh245triFmethyl

>  <PQ_SYMBOL>  (1345) 
bAla_3SPh245triFmethyl

>  <FULL_NAME>  (1345) 
(S)-3-amino-4-(2,4,5-trifluorophenyl)butanoic acid

>  <IUPAC_CONDENSED>  (1345) 
bAla(3S-Ph(2,4,5-triF)methyl)

>  <IUPAC>  (1345) 
(3S)-3-amino-4-(2,4,5-trifluorophenyl)butanoic acid

>  <TYPE>  (1345) 
Backbone

>  <CLASS>  (1345) 
beta

>  <ANALOG>  (1345) 
Phe

>  <MOL_WT>  (1345) 
233.18899999999996

>  <LOGP>  (1345) 
1.4484000000000001

>  <TPSA>  (1345) 
63.32000000000001

>  <POPULARITY>  (1345) 
4.2

>  <PROTECTED>  (1345) 
TRUE

>  <SMILES>  (1345) 
N[C@@H](Cc1(cc(F)c(F)cc1F))CC(=O)O

>  <INCHIKEY>  (1345) 
KEFQQJVYCWLKPL-LURJTMIESA-N

$$$$
Phe_3OCF3
     RDKit          2D

 17 17  0  0  0  0  0  0  0  0999 V2000
   -3.3907    1.4014    0.0000 N   0  0  0  0  0  0  0  0  0  0  0  0
   -3.1013   -0.0704    0.0000 C   0  0  0  0  0  0  0  0  0  0  0  0
   -1.6819   -0.5556    0.0000 C   0  0  0  0  0  0  0  0  0  0  0  0
   -0.5520    0.4310    0.0000 C   0  0  0  0  0  0  0  0  0  0  0  0
   -0.8415    1.9028    0.0000 C   0  0  0  0  0  0  0  0  0  0  0  0
    0.2884    2.8894    0.0000 C   0  0  0  0  0  0  0  0  0  0  0  0
    1.7077    2.4042    0.0000 C   0  0  0  0  0  0  0  0  0  0  0  0
    1.9972    0.9324    0.0000 C   0  0  0  0  0  0  0  0  0  0  0  0
    3.4166    0.4472    0.0000 O   0  0  0  0  0  0  0  0  0  0  0  0
    3.7060   -1.0246    0.0000 C   0  0  0  0  0  0  0  0  0  0  0  0
    3.9955   -2.4964    0.0000 F   0  0  0  0  0  0  0  0  0  0  0  0
    5.1778   -0.7352    0.0000 F   0  0  0  0  0  0  0  0  0  0  0  0
    2.2342   -1.3141    0.0000 F   0  0  0  0  0  0  0  0  0  0  0  0
    0.8673   -0.0542    0.0000 C   0  0  0  0  0  0  0  0  0  0  0  0
   -4.2312   -1.0570    0.0000 C   0  0  0  0  0  0  0  0  0  0  0  0
   -3.9417   -2.5288    0.0000 O   0  0  0  0  0  0  0  0  0  0  0  0
   -5.6505   -0.5718    0.0000 O   0  0  0  0  0  0  0  0  0  0  0  0
  2  1  1  1
  2  3  1  0
  3  4  1  0
  4  5  1  0
  5  6  2  0
  6  7  1  0
  7  8  2  0
  8  9  1  0
  9 10  1  0
 10 11  1  0
 10 12  1  0
 10 13  1  0
  8 14  1  0
  2 15  1  0
 15 16  2  0
 15 17  1  0
 14  4  2  0
M  END
>  <rName>  (1346) 
Phe_3OCF3

>  <PQ_SYMBOL>  (1346) 
Phe_3OCF3

>  <FULL_NAME>  (1346) 
(S)-2-amino-3-(3-(trifluoromethoxy)phenyl)propanoic acid

>  <IUPAC_CONDENSED>  (1346) 
Phe(3-OCF3)

>  <IUPAC>  (1346) 
(2S)-2-amino-3-(3-((trifluoromethyl)oxy)phenyl)propanoic acid

>  <TYPE>  (1346) 
Backbone

>  <CLASS>  (1346) 
alpha

>  <ANALOG>  (1346) 
Tyr

>  <MOL_WT>  (1346) 
249.18799999999993

>  <LOGP>  (1346) 
1.5396

>  <TPSA>  (1346) 
72.55

>  <POPULARITY>  (1346) 
3.1

>  <PROTECTED>  (1346) 
TRUE

>  <SMILES>  (1346) 
N[C@@H](Cc1(cccc(OC(F)(F)F)c1))C(=O)O

>  <INCHIKEY>  (1346) 
NIONQVYUGGCUHI-QMMMGPOBSA-N

$$$$
Phe_2OCF3
     RDKit          2D

 17 17  0  0  0  0  0  0  0  0999 V2000
   -3.2166    1.3671    0.0000 N   0  0  0  0  0  0  0  0  0  0  0  0
   -2.7769   -0.0670    0.0000 C   0  0  0  0  0  0  0  0  0  0  0  0
   -1.3150   -0.4032    0.0000 C   0  0  0  0  0  0  0  0  0  0  0  0
   -0.2929    0.6946    0.0000 C   0  0  0  0  0  0  0  0  0  0  0  0
   -0.7327    2.1287    0.0000 C   0  0  0  0  0  0  0  0  0  0  0  0
    0.2894    3.2266    0.0000 C   0  0  0  0  0  0  0  0  0  0  0  0
    1.7513    2.8904    0.0000 C   0  0  0  0  0  0  0  0  0  0  0  0
    2.1910    1.4563    0.0000 C   0  0  0  0  0  0  0  0  0  0  0  0
    1.1689    0.3584    0.0000 C   0  0  0  0  0  0  0  0  0  0  0  0
    1.6086   -1.0757    0.0000 O   0  0  0  0  0  0  0  0  0  0  0  0
    3.0705   -1.4119    0.0000 C   0  0  0  0  0  0  0  0  0  0  0  0
    4.5323   -1.7481    0.0000 F   0  0  0  0  0  0  0  0  0  0  0  0
    2.7342   -2.8737    0.0000 F   0  0  0  0  0  0  0  0  0  0  0  0
    3.4067    0.0499    0.0000 F   0  0  0  0  0  0  0  0  0  0  0  0
   -3.7990   -1.1649    0.0000 C   0  0  0  0  0  0  0  0  0  0  0  0
   -3.3592   -2.5990    0.0000 O   0  0  0  0  0  0  0  0  0  0  0  0
   -5.2608   -0.8286    0.0000 O   0  0  0  0  0  0  0  0  0  0  0  0
  2  1  1  1
  2  3  1  0
  3  4  1  0
  4  5  2  0
  5  6  1  0
  6  7  2  0
  7  8  1  0
  8  9  2  0
  9 10  1  0
 10 11  1  0
 11 12  1  0
 11 13  1  0
 11 14  1  0
  2 15  1  0
 15 16  2  0
 15 17  1  0
  9  4  1  0
M  END
>  <rName>  (1347) 
Phe_2OCF3

>  <PQ_SYMBOL>  (1347) 
Phe_2OCF3

>  <FULL_NAME>  (1347) 
(S)-2-amino-3-(2-(trifluoromethoxy)phenyl)propanoic acid

>  <IUPAC_CONDENSED>  (1347) 
Phe(2-OCF3)

>  <IUPAC>  (1347) 
(2S)-2-amino-3-(2-((trifluoromethyl)oxy)phenyl)propanoic acid

>  <TYPE>  (1347) 
Backbone

>  <CLASS>  (1347) 
alpha

>  <ANALOG>  (1347) 
Tyr

>  <MOL_WT>  (1347) 
249.18799999999993

>  <LOGP>  (1347) 
1.5396000000000003

>  <TPSA>  (1347) 
72.55

>  <POPULARITY>  (1347) 
3.5

>  <PROTECTED>  (1347) 
TRUE

>  <SMILES>  (1347) 
N[C@@H](Cc1(ccccc1OC(F)(F)F))C(=O)O

>  <INCHIKEY>  (1347) 
ILPKLBNKYRAICX-ZETCQYMHSA-N

$$$$
2R-amino-cyclohexane-1S-CO2H
     RDKit          2D

 10 10  0  0  0  0  0  0  0  0999 V2000
   -0.4166   -2.3203    0.0000 N   0  0  0  0  0  0  0  0  0  0  0  0
    0.3975   -1.0604    0.0000 C   0  0  0  0  0  0  0  0  0  0  0  0
   -0.2866    0.2745    0.0000 C   0  0  0  0  0  0  0  0  0  0  0  0
    0.5274    1.5344    0.0000 C   0  0  0  0  0  0  0  0  0  0  0  0
    2.0255    1.4594    0.0000 C   0  0  0  0  0  0  0  0  0  0  0  0
    2.7096    0.1244    0.0000 C   0  0  0  0  0  0  0  0  0  0  0  0
    1.8956   -1.1355    0.0000 C   0  0  0  0  0  0  0  0  0  0  0  0
   -1.7848    0.3495    0.0000 C   0  0  0  0  0  0  0  0  0  0  0  0
   -2.5988   -0.9104    0.0000 O   0  0  0  0  0  0  0  0  0  0  0  0
   -2.4688    1.6844    0.0000 O   0  0  0  0  0  0  0  0  0  0  0  0
  2  1  1  1
  2  3  1  0
  3  4  1  0
  4  5  1  0
  5  6  1  0
  6  7  1  0
  3  8  1  1
  8  9  2  0
  8 10  1  0
  7  2  1  0
M  END
>  <rName>  (1348) 
2R-amino-cyclohexane-1S-CO2H

>  <PQ_SYMBOL>  (1348) 
2R-amino-cyclohexane-1S-CO2H

>  <FULL_NAME>  (1348) 
(1S,2R)-2-aminocyclohexane-1-carboxylic acid

>  <IUPAC_CONDENSED>  (1348) 
2R-amino-cyclohexane-1S-CO2H

>  <IUPAC>  (1348) 
(1S,2R)-2-aminocyclohexanecarboxylic acid

>  <TYPE>  (1348) 
Backbone

>  <CLASS>  (1348) 
beta

>  <ANALOG>  (1348) 
Leu

>  <MOL_WT>  (1348) 
143.186

>  <LOGP>  (1348) 
0.5884999999999998

>  <TPSA>  (1348) 
63.32000000000001

>  <POPULARITY>  (1348) 
13.9

>  <PROTECTED>  (1348) 
TRUE

>  <SMILES>  (1348) 
N[C@H]1[C@H](CCCC1)C(=O)O

>  <INCHIKEY>  (1348) 
USQHEVWOPJDAAX-NTSWFWBYSA-N

$$$$
D-Phe_2OMe
     RDKit          2D

 14 14  0  0  0  0  0  0  0  0999 V2000
   -1.9781    1.7869    0.0000 N   0  0  0  0  0  0  0  0  0  0  0  0
   -2.0323    0.2879    0.0000 C   0  0  0  0  0  0  0  0  0  0  0  0
   -0.7612   -0.5086    0.0000 C   0  0  0  0  0  0  0  0  0  0  0  0
    0.5641    0.1940    0.0000 C   0  0  0  0  0  0  0  0  0  0  0  0
    0.6183    1.6931    0.0000 C   0  0  0  0  0  0  0  0  0  0  0  0
    1.9435    2.3957    0.0000 C   0  0  0  0  0  0  0  0  0  0  0  0
    3.2146    1.5993    0.0000 C   0  0  0  0  0  0  0  0  0  0  0  0
    3.1605    0.1002    0.0000 C   0  0  0  0  0  0  0  0  0  0  0  0
    1.8352   -0.6024    0.0000 C   0  0  0  0  0  0  0  0  0  0  0  0
    1.7811   -2.1014    0.0000 O   0  0  0  0  0  0  0  0  0  0  0  0
    3.0522   -2.8978    0.0000 C   0  0  0  0  0  0  0  0  0  0  0  0
   -3.3575   -0.4148    0.0000 C   0  0  0  0  0  0  0  0  0  0  0  0
   -3.4117   -1.9138    0.0000 O   0  0  0  0  0  0  0  0  0  0  0  0
   -4.6287    0.3817    0.0000 O   0  0  0  0  0  0  0  0  0  0  0  0
  2  1  1  6
  2  3  1  0
  3  4  1  0
  4  5  2  0
  5  6  1  0
  6  7  2  0
  7  8  1  0
  8  9  2  0
  9 10  1  0
 10 11  1  0
  2 12  1  0
 12 13  2  0
 12 14  1  0
  9  4  1  0
M  END
>  <rName>  (1349) 
D-Phe_2OMe

>  <PQ_SYMBOL>  (1349) 
D-Phe_2OMe

>  <FULL_NAME>  (1349) 
(R)-2-amino-3-(2-methoxyphenyl)propanoic acid

>  <IUPAC_CONDENSED>  (1349) 
D-Phe(2-OMe)

>  <IUPAC>  (1349) 
(2R)-2-amino-3-(2-methoxyphenyl)propanoic acid

>  <TYPE>  (1349) 
Backbone

>  <CLASS>  (1349) 
alpha

>  <ANALOG>  (1349) 
Tyr

>  <MOL_WT>  (1349) 
195.21799999999996

>  <LOGP>  (1349) 
0.6496

>  <TPSA>  (1349) 
72.55

>  <POPULARITY>  (1349) 
6.4

>  <PROTECTED>  (1349) 
TRUE

>  <SMILES>  (1349) 
N[C@H](Cc1(ccccc1OC))C(=O)O

>  <INCHIKEY>  (1349) 
SEUPQWHWULSGJC-MRVPVSSYSA-N

$$$$
D-Pro_5RPh
     RDKit          2D

 14 15  0  0  0  0  0  0  0  0999 V2000
   -1.0138    0.6092    0.0000 N   0  0  0  0  0  0  0  0  0  0  0  0
   -2.3178   -0.1320    0.0000 C   0  0  0  0  0  0  0  0  0  0  0  0
   -2.0158   -1.6013    0.0000 C   0  0  0  0  0  0  0  0  0  0  0  0
   -0.5251   -1.7681    0.0000 C   0  0  0  0  0  0  0  0  0  0  0  0
    0.0942   -0.4019    0.0000 C   0  0  0  0  0  0  0  0  0  0  0  0
    1.5635   -0.0999    0.0000 C   0  0  0  0  0  0  0  0  0  0  0  0
    2.5597   -1.2213    0.0000 C   0  0  0  0  0  0  0  0  0  0  0  0
    4.0290   -0.9192    0.0000 C   0  0  0  0  0  0  0  0  0  0  0  0
    4.5020    0.5042    0.0000 C   0  0  0  0  0  0  0  0  0  0  0  0
    3.5058    1.6256    0.0000 C   0  0  0  0  0  0  0  0  0  0  0  0
    2.0365    1.3236    0.0000 C   0  0  0  0  0  0  0  0  0  0  0  0
   -3.6840    0.4872    0.0000 C   0  0  0  0  0  0  0  0  0  0  0  0
   -4.9034   -0.3863    0.0000 O   0  0  0  0  0  0  0  0  0  0  0  0
   -3.8308    1.9800    0.0000 O   0  0  0  0  0  0  0  0  0  0  0  0
  1  2  1  0
  2  3  1  0
  3  4  1  0
  4  5  1  0
  5  6  1  1
  6  7  2  0
  7  8  1  0
  8  9  2  0
  9 10  1  0
 10 11  2  0
  2 12  1  6
 12 13  2  0
 12 14  1  0
  5  1  1  0
 11  6  1  0
M  END
>  <rName>  (1350) 
D-Pro_5RPh

>  <PQ_SYMBOL>  (1350) 
D-Pro_5RPh

>  <FULL_NAME>  (1350) 
(2R,5R)-5-phenylpyrrolidine-2-carboxylic acid

>  <IUPAC_CONDENSED>  (1350) 
D-Pro(5R-Ph)

>  <IUPAC>  (1350) 
(2R,5R)-5-phenylpyrrolidine-2-carboxylic acid

>  <TYPE>  (1350) 
Backbone

>  <CLASS>  (1350) 
alpha

>  <ANALOG>  (1350) 
Pro

>  <MOL_WT>  (1350) 
191.23

>  <LOGP>  (1350) 
1.5642999999999998

>  <TPSA>  (1350) 
49.33

>  <POPULARITY>  (1350) 
8.4

>  <PROTECTED>  (1350) 
TRUE

>  <SMILES>  (1350) 
N1[C@H](CC[C@@H]1c2(ccccc2))C(=O)O

>  <INCHIKEY>  (1350) 
SMWADGDVGCZIGK-NXEZZACHSA-N

$$$$
D-Gla
     RDKit          2D

 13 12  0  0  0  0  0  0  0  0999 V2000
   -1.3045    1.6202    0.0000 N   0  0  0  0  0  0  0  0  0  0  0  0
   -1.4942    0.1323    0.0000 C   0  0  0  0  0  0  0  0  0  0  0  0
   -0.3004   -0.7759    0.0000 C   0  0  0  0  0  0  0  0  0  0  0  0
    1.0831   -0.1962    0.0000 C   0  0  0  0  0  0  0  0  0  0  0  0
    2.2769   -1.1044    0.0000 C   0  0  0  0  0  0  0  0  0  0  0  0
    2.0872   -2.5924    0.0000 O   0  0  0  0  0  0  0  0  0  0  0  0
    3.6603   -0.5247    0.0000 O   0  0  0  0  0  0  0  0  0  0  0  0
    1.2727    1.2918    0.0000 C   0  0  0  0  0  0  0  0  0  0  0  0
    0.0789    2.2000    0.0000 O   0  0  0  0  0  0  0  0  0  0  0  0
    2.6562    1.8715    0.0000 O   0  0  0  0  0  0  0  0  0  0  0  0
   -2.8776   -0.4475    0.0000 C   0  0  0  0  0  0  0  0  0  0  0  0
   -3.0672   -1.9354    0.0000 O   0  0  0  0  0  0  0  0  0  0  0  0
   -4.0714    0.4608    0.0000 O   0  0  0  0  0  0  0  0  0  0  0  0
  2  1  1  6
  2  3  1  0
  3  4  1  0
  4  5  1  0
  5  6  2  0
  5  7  1  0
  4  8  1  0
  8  9  2  0
  8 10  1  0
  2 11  1  0
 11 12  2  0
 11 13  1  0
M  END
>  <rName>  (1351) 
D-Gla

>  <PQ_SYMBOL>  (1351) 
D-Gla

>  <FULL_NAME>  (1351) 
(R)-3-aminopropane-1,1,3-tricarboxylic acid

>  <IUPAC_CONDENSED>  (1351) 
D-Gla

>  <IUPAC>  (1351) 
(2R)-2-amino-4-carboxypentanedioic acid

>  <TYPE>  (1351) 
Backbone

>  <CLASS>  (1351) 
alpha

>  <ANALOG>  (1351) 
Glu

>  <MOL_WT>  (1351) 
191.13899999999998

>  <LOGP>  (1351) 
-1.4261999999999997

>  <TPSA>  (1351) 
137.92000000000002

>  <POPULARITY>  (1351) 
5.5

>  <PROTECTED>  (1351) 
TRUE

>  <SMILES>  (1351) 
N[C@H](CC(C(=O)O)C(=O)O)C(=O)O

>  <INCHIKEY>  (1351) 
UHBYWPGGCSDKFX-GSVOUGTGSA-N

$$$$
2S-amino-cyclohexane-1S-CO2H
     RDKit          2D

 10 10  0  0  0  0  0  0  0  0999 V2000
   -0.4166   -2.3203    0.0000 N   0  0  0  0  0  0  0  0  0  0  0  0
    0.3975   -1.0604    0.0000 C   0  0  0  0  0  0  0  0  0  0  0  0
   -0.2866    0.2745    0.0000 C   0  0  0  0  0  0  0  0  0  0  0  0
    0.5274    1.5344    0.0000 C   0  0  0  0  0  0  0  0  0  0  0  0
    2.0255    1.4594    0.0000 C   0  0  0  0  0  0  0  0  0  0  0  0
    2.7096    0.1244    0.0000 C   0  0  0  0  0  0  0  0  0  0  0  0
    1.8956   -1.1355    0.0000 C   0  0  0  0  0  0  0  0  0  0  0  0
   -1.7848    0.3495    0.0000 C   0  0  0  0  0  0  0  0  0  0  0  0
   -2.5988   -0.9104    0.0000 O   0  0  0  0  0  0  0  0  0  0  0  0
   -2.4688    1.6844    0.0000 O   0  0  0  0  0  0  0  0  0  0  0  0
  2  1  1  6
  2  3  1  0
  3  4  1  0
  4  5  1  0
  5  6  1  0
  6  7  1  0
  3  8  1  1
  8  9  2  0
  8 10  1  0
  7  2  1  0
M  END
>  <rName>  (1352) 
2S-amino-cyclohexane-1S-CO2H

>  <PQ_SYMBOL>  (1352) 
2S-amino-cyclohexane-1S-CO2H

>  <FULL_NAME>  (1352) 
(1S,2S)-2-aminocyclohexane-1-carboxylic acid

>  <IUPAC_CONDENSED>  (1352) 
2S-amino-cyclohexane-1S-CO2H

>  <IUPAC>  (1352) 
(1S,2S)-2-aminocyclohexanecarboxylic acid

>  <TYPE>  (1352) 
Backbone

>  <CLASS>  (1352) 
beta

>  <ANALOG>  (1352) 
Leu

>  <MOL_WT>  (1352) 
143.186

>  <LOGP>  (1352) 
0.5884999999999998

>  <TPSA>  (1352) 
63.32000000000001

>  <POPULARITY>  (1352) 
11.2

>  <PROTECTED>  (1352) 
TRUE

>  <SMILES>  (1352) 
N[C@@H]1[C@H](CCCC1)C(=O)O

>  <INCHIKEY>  (1352) 
USQHEVWOPJDAAX-WDSKDSINSA-N

$$$$
2S-amino-cyclohexane-1R-CO2H
     RDKit          2D

 10 10  0  0  0  0  0  0  0  0999 V2000
   -0.4166   -2.3203    0.0000 N   0  0  0  0  0  0  0  0  0  0  0  0
    0.3975   -1.0604    0.0000 C   0  0  0  0  0  0  0  0  0  0  0  0
   -0.2866    0.2745    0.0000 C   0  0  0  0  0  0  0  0  0  0  0  0
    0.5274    1.5344    0.0000 C   0  0  0  0  0  0  0  0  0  0  0  0
    2.0255    1.4594    0.0000 C   0  0  0  0  0  0  0  0  0  0  0  0
    2.7096    0.1244    0.0000 C   0  0  0  0  0  0  0  0  0  0  0  0
    1.8956   -1.1355    0.0000 C   0  0  0  0  0  0  0  0  0  0  0  0
   -1.7848    0.3495    0.0000 C   0  0  0  0  0  0  0  0  0  0  0  0
   -2.5988   -0.9104    0.0000 O   0  0  0  0  0  0  0  0  0  0  0  0
   -2.4688    1.6844    0.0000 O   0  0  0  0  0  0  0  0  0  0  0  0
  2  1  1  6
  2  3  1  0
  3  4  1  0
  4  5  1  0
  5  6  1  0
  6  7  1  0
  3  8  1  6
  8  9  2  0
  8 10  1  0
  7  2  1  0
M  END
>  <rName>  (1353) 
2S-amino-cyclohexane-1R-CO2H

>  <PQ_SYMBOL>  (1353) 
2S-amino-cyclohexane-1R-CO2H

>  <FULL_NAME>  (1353) 
(1R,2S)-2-aminocyclohexane-1-carboxylic acid

>  <IUPAC_CONDENSED>  (1353) 
2S-amino-cyclohexane-1R-CO2H

>  <IUPAC>  (1353) 
(1R,2S)-2-aminocyclohexanecarboxylic acid

>  <TYPE>  (1353) 
Backbone

>  <CLASS>  (1353) 
beta

>  <ANALOG>  (1353) 
Leu

>  <MOL_WT>  (1353) 
143.186

>  <LOGP>  (1353) 
0.5884999999999998

>  <TPSA>  (1353) 
63.32000000000001

>  <POPULARITY>  (1353) 
9.1

>  <PROTECTED>  (1353) 
TRUE

>  <SMILES>  (1353) 
N[C@@H]1[C@@H](CCCC1)C(=O)O

>  <INCHIKEY>  (1353) 
USQHEVWOPJDAAX-RITPCOANSA-N

$$$$
D-aMeAbu_vinyl
     RDKit          2D

 10  9  0  0  0  0  0  0  0  0999 V2000
    0.0056    1.7744    0.0000 N   0  0  0  0  0  0  0  0  0  0  0  0
   -0.8858    0.5680    0.0000 C   0  0  0  0  0  0  0  0  0  0  0  0
   -2.0922    1.4594    0.0000 C   0  0  0  0  0  0  0  0  0  0  0  0
    0.3205   -0.3234    0.0000 C   0  0  0  0  0  0  0  0  0  0  0  0
    1.6957    0.2756    0.0000 C   0  0  0  0  0  0  0  0  0  0  0  0
    2.9021   -0.6158    0.0000 C   0  0  0  0  0  0  0  0  0  0  0  0
    4.2773   -0.0167    0.0000 C   0  0  0  0  0  0  0  0  0  0  0  0
   -1.7773   -0.6384    0.0000 C   0  0  0  0  0  0  0  0  0  0  0  0
   -3.2677   -0.4696    0.0000 O   0  0  0  0  0  0  0  0  0  0  0  0
   -1.1782   -2.0136    0.0000 O   0  0  0  0  0  0  0  0  0  0  0  0
  1  2  1  0
  2  3  1  1
  2  4  1  0
  4  5  1  0
  5  6  1  0
  6  7  2  0
  2  8  1  0
  8  9  2  0
  8 10  1  0
M  END
>  <rName>  (1354) 
D-aMeAbu_vinyl

>  <PQ_SYMBOL>  (1354) 
D-aMeAbu_vinyl

>  <FULL_NAME>  (1354) 
(R)-2-amino-2-methylhex-5-enoic acid

>  <IUPAC_CONDENSED>  (1354) 
D-aMeAbu(vinyl)

>  <IUPAC>  (1354) 
(2R)-2-amino-2-methylhex-5-enoic acid

>  <TYPE>  (1354) 
Backbone

>  <CLASS>  (1354) 
alpha

>  <ANALOG>  (1354) 
Leu

>  <MOL_WT>  (1354) 
143.186

>  <LOGP>  (1354) 
0.7545999999999999

>  <TPSA>  (1354) 
63.32000000000001

>  <POPULARITY>  (1354) 
7.4

>  <PROTECTED>  (1354) 
TRUE

>  <SMILES>  (1354) 
N[C@](C)(CCC=C)C(=O)O

>  <INCHIKEY>  (1354) 
OQVMALDNOMXRAP-SSDOTTSWSA-N

$$$$
D-Phg_3Cl
     RDKit          2D

 12 12  0  0  0  0  0  0  0  0999 V2000
   -1.5885   -2.1920    0.0000 N   0  0  0  0  0  0  0  0  0  0  0  0
   -1.3991   -0.7040    0.0000 C   0  0  0  0  0  0  0  0  0  0  0  0
   -0.0158   -0.1240    0.0000 C   0  0  0  0  0  0  0  0  0  0  0  0
    0.1736    1.3640    0.0000 C   0  0  0  0  0  0  0  0  0  0  0  0
    1.5569    1.9440    0.0000 C   0  0  0  0  0  0  0  0  0  0  0  0
    2.7509    1.0360    0.0000 C   0  0  0  0  0  0  0  0  0  0  0  0
    2.5615   -0.4520    0.0000 C   0  0  0  0  0  0  0  0  0  0  0  0
    3.7555   -1.3600    0.0000 Cl  0  0  0  0  0  0  0  0  0  0  0  0
    1.1782   -1.0320    0.0000 C   0  0  0  0  0  0  0  0  0  0  0  0
   -2.5931    0.2040    0.0000 C   0  0  0  0  0  0  0  0  0  0  0  0
   -2.4037    1.6920    0.0000 O   0  0  0  0  0  0  0  0  0  0  0  0
   -3.9764   -0.3760    0.0000 O   0  0  0  0  0  0  0  0  0  0  0  0
  2  1  1  1
  2  3  1  0
  3  4  2  0
  4  5  1  0
  5  6  2  0
  6  7  1  0
  7  8  1  0
  7  9  2  0
  2 10  1  0
 10 11  2  0
 10 12  1  0
  9  3  1  0
M  END
>  <rName>  (1355) 
D-Phg_3Cl

>  <PQ_SYMBOL>  (1355) 
D-Phg_3Cl

>  <FULL_NAME>  (1355) 
(2R)-2-amino-2-(3-chlorophenyl)acetic acid

>  <IUPAC_CONDENSED>  (1355) 
D-Phg(3-Cl)

>  <IUPAC>  (1355) 
(2R)-2-amino-2-(3-chlorophenyl)acetic acid

>  <TYPE>  (1355) 
Backbone

>  <CLASS>  (1355) 
alpha

>  <ANALOG>  (1355) 
X

>  <MOL_WT>  (1355) 
185.60999999999999

>  <LOGP>  (1355) 
1.4244

>  <TPSA>  (1355) 
63.32000000000001

>  <POPULARITY>  (1355) 
6.7

>  <PROTECTED>  (1355) 
TRUE

>  <SMILES>  (1355) 
N[C@H](c1(cccc(Cl)c1))C(=O)O

>  <INCHIKEY>  (1355) 
MGOUENCSVMAGSE-SSDOTTSWSA-N

$$$$
Gly_Me_cPr
     RDKit          2D

  9  9  0  0  0  0  0  0  0  0999 V2000
   -0.1081   -2.0917    0.0000 N   0  0  0  0  0  0  0  0  0  0  0  0
    0.4107   -0.6843    0.0000 C   0  0  0  0  0  0  0  0  0  0  0  0
    1.8181   -1.2030    0.0000 C   0  0  0  0  0  0  0  0  0  0  0  0
   -0.9967   -0.1655    0.0000 C   0  0  0  0  0  0  0  0  0  0  0  0
   -1.9562    0.9875    0.0000 C   0  0  0  0  0  0  0  0  0  0  0  0
   -2.4750   -0.4199    0.0000 C   0  0  0  0  0  0  0  0  0  0  0  0
    0.9295    0.7232    0.0000 C   0  0  0  0  0  0  0  0  0  0  0  0
   -0.0300    1.8762    0.0000 O   0  0  0  0  0  0  0  0  0  0  0  0
    2.4077    0.9776    0.0000 O   0  0  0  0  0  0  0  0  0  0  0  0
  1  2  1  0
  2  3  1  6
  2  4  1  0
  4  5  1  0
  5  6  1  0
  2  7  1  0
  7  8  2  0
  7  9  1  0
  6  4  1  0
M  END
>  <rName>  (1356) 
Gly_Me_cPr

>  <PQ_SYMBOL>  (1356) 
Gly_Me_cPr

>  <FULL_NAME>  (1356) 
(S)-2-amino-2-cyclopropylpropanoic acid

>  <IUPAC_CONDENSED>  (1356) 
Gly(Me,cPr)

>  <IUPAC>  (1356) 
(2S)-2-amino-2-cyclopropylpropanoic acid

>  <TYPE>  (1356) 
Backbone

>  <CLASS>  (1356) 
alpha

>  <ANALOG>  (1356) 
X

>  <MOL_WT>  (1356) 
129.15900000000002

>  <LOGP>  (1356) 
0.19839999999999985

>  <TPSA>  (1356) 
63.32000000000001

>  <POPULARITY>  (1356) 
9.4

>  <PROTECTED>  (1356) 
TRUE

>  <SMILES>  (1356) 
N[C@@](C)(C1(CC1))C(=O)O

>  <INCHIKEY>  (1356) 
VRFYYCFVOBCXDL-LURJTMIESA-N

$$$$
Phe_4Et
     RDKit          2D

 14 14  0  0  0  0  0  0  0  0999 V2000
   -2.0397    1.6757    0.0000 N   0  0  0  0  0  0  0  0  0  0  0  0
   -2.4395    0.2299    0.0000 C   0  0  0  0  0  0  0  0  0  0  0  0
   -1.3873   -0.8392    0.0000 C   0  0  0  0  0  0  0  0  0  0  0  0
    0.0646   -0.4625    0.0000 C   0  0  0  0  0  0  0  0  0  0  0  0
    0.4644    0.9832    0.0000 C   0  0  0  0  0  0  0  0  0  0  0  0
    1.9164    1.3598    0.0000 C   0  0  0  0  0  0  0  0  0  0  0  0
    2.9685    0.2907    0.0000 C   0  0  0  0  0  0  0  0  0  0  0  0
    2.5687   -1.1550    0.0000 C   0  0  0  0  0  0  0  0  0  0  0  0
    1.1168   -1.5316    0.0000 C   0  0  0  0  0  0  0  0  0  0  0  0
    4.4205    0.6674    0.0000 C   0  0  0  0  0  0  0  0  0  0  0  0
    5.4726   -0.4017    0.0000 C   0  0  0  0  0  0  0  0  0  0  0  0
   -3.8914   -0.1467    0.0000 C   0  0  0  0  0  0  0  0  0  0  0  0
   -4.2912   -1.5924    0.0000 O   0  0  0  0  0  0  0  0  0  0  0  0
   -4.9436    0.9224    0.0000 O   0  0  0  0  0  0  0  0  0  0  0  0
  2  1  1  1
  2  3  1  0
  3  4  1  0
  4  5  1  0
  5  6  2  0
  6  7  1  0
  7  8  2  0
  8  9  1  0
  7 10  1  0
 10 11  1  0
  2 12  1  0
 12 13  2  0
 12 14  1  0
  9  4  2  0
M  END
>  <rName>  (1357) 
Phe_4Et

>  <PQ_SYMBOL>  (1357) 
Phe_4Et

>  <FULL_NAME>  (1357) 
(S)-2-amino-3-(4-ethylphenyl)propanoic acid

>  <IUPAC_CONDENSED>  (1357) 
Phe(4-Et)

>  <IUPAC>  (1357) 
(2S)-2-amino-3-(4-ethylphenyl)propanoic acid

>  <TYPE>  (1357) 
Backbone

>  <CLASS>  (1357) 
alpha

>  <ANALOG>  (1357) 
Phe

>  <MOL_WT>  (1357) 
193.24599999999995

>  <LOGP>  (1357) 
1.2034000000000002

>  <TPSA>  (1357) 
63.32000000000001

>  <POPULARITY>  (1357) 
7.8

>  <PROTECTED>  (1357) 
TRUE

>  <SMILES>  (1357) 
N[C@@H](Cc1(ccc(cc1)CC))C(=O)O

>  <INCHIKEY>  (1357) 
AWKDBHFQJATNBQ-JTQLQIEISA-N

$$$$
bLeu
     RDKit          2D

  9  8  0  0  0  0  0  0  0  0999 V2000
   -0.2826    1.7410    0.0000 N   0  0  0  0  0  0  0  0  0  0  0  0
   -0.5402    0.2633    0.0000 C   0  0  0  0  0  0  0  0  0  0  0  0
   -1.9487   -0.2525    0.0000 C   0  0  0  0  0  0  0  0  0  0  0  0
   -3.0997    0.7094    0.0000 C   0  0  0  0  0  0  0  0  0  0  0  0
   -2.2062   -1.7302    0.0000 C   0  0  0  0  0  0  0  0  0  0  0  0
    0.6108   -0.6986    0.0000 C   0  0  0  0  0  0  0  0  0  0  0  0
    2.0193   -0.1828    0.0000 C   0  0  0  0  0  0  0  0  0  0  0  0
    2.2769    1.2950    0.0000 O   0  0  0  0  0  0  0  0  0  0  0  0
    3.1703   -1.1447    0.0000 O   0  0  0  0  0  0  0  0  0  0  0  0
  1  2  1  0
  2  3  1  0
  3  4  1  0
  3  5  1  0
  2  6  1  0
  6  7  1  0
  7  8  2  0
  7  9  1  0
M  END
>  <rName>  (1358) 
bLeu

>  <PQ_SYMBOL>  (1358) 
bLeu

>  <FULL_NAME>  (1358) 
3-amino-4-methylpentanoic acid

>  <IUPAC_CONDENSED>  (1358) 
bLeu

>  <IUPAC>  (1358) 
3-amino-4-methylpentanoic acid

>  <TYPE>  (1358) 
Backbone

>  <CLASS>  (1358) 
beta

>  <ANALOG>  (1358) 
Val

>  <MOL_WT>  (1358) 
131.175

>  <LOGP>  (1358) 
0.44439999999999985

>  <TPSA>  (1358) 
63.32000000000001

>  <POPULARITY>  (1358) 
15.1

>  <PROTECTED>  (1358) 
TRUE

>  <SMILES>  (1358) 
NC(C(C)C)CC(=O)O

>  <INCHIKEY>  (1358) 
GLUJNGJDHCTUJY-UHFFFAOYSA-N

$$$$
Phe_2F_5Br
     RDKit          2D

 14 14  0  0  0  0  0  0  0  0999 V2000
   -1.4552    1.7882    0.0000 N   0  0  0  0  0  0  0  0  0  0  0  0
   -1.9325    0.3661    0.0000 C   0  0  0  0  0  0  0  0  0  0  0  0
   -0.9397   -0.7583    0.0000 C   0  0  0  0  0  0  0  0  0  0  0  0
    0.5305   -0.4606    0.0000 C   0  0  0  0  0  0  0  0  0  0  0  0
    1.0078    0.9614    0.0000 C   0  0  0  0  0  0  0  0  0  0  0  0
    2.4780    1.2591    0.0000 C   0  0  0  0  0  0  0  0  0  0  0  0
    2.9553    2.6811    0.0000 Br  0  0  0  0  0  0  0  0  0  0  0  0
    3.4709    0.1347    0.0000 C   0  0  0  0  0  0  0  0  0  0  0  0
    2.9935   -1.2874    0.0000 C   0  0  0  0  0  0  0  0  0  0  0  0
    1.5234   -1.5850    0.0000 C   0  0  0  0  0  0  0  0  0  0  0  0
    1.0461   -3.0070    0.0000 F   0  0  0  0  0  0  0  0  0  0  0  0
   -3.4027    0.0685    0.0000 C   0  0  0  0  0  0  0  0  0  0  0  0
   -3.8800   -1.3536    0.0000 O   0  0  0  0  0  0  0  0  0  0  0  0
   -4.3955    1.1929    0.0000 O   0  0  0  0  0  0  0  0  0  0  0  0
  2  1  1  1
  2  3  1  0
  3  4  1  0
  4  5  1  0
  5  6  2  0
  6  7  1  0
  6  8  1  0
  8  9  2  0
  9 10  1  0
 10 11  1  0
  2 12  1  0
 12 13  2  0
 12 14  1  0
 10  4  2  0
M  END
>  <rName>  (1359) 
Phe_2F_5Br

>  <PQ_SYMBOL>  (1359) 
Phe_2F_5Br

>  <FULL_NAME>  (1359) 
(S)-2-amino-3-(5-bromo-2-fluorophenyl)propanoic acid

>  <IUPAC_CONDENSED>  (1359) 
Phe(2-F,5-Br)

>  <IUPAC>  (1359) 
(2S)-2-amino-3-(5-bromo-2-fluorophenyl)propanoic acid

>  <TYPE>  (1359) 
Backbone

>  <CLASS>  (1359) 
alpha

>  <ANALOG>  (1359) 
Phe

>  <MOL_WT>  (1359) 
262.078

>  <LOGP>  (1359) 
1.5426000000000002

>  <TPSA>  (1359) 
63.32000000000001

>  <POPULARITY>  (1359) 
3

>  <PROTECTED>  (1359) 
TRUE

>  <SMILES>  (1359) 
N[C@@H](Cc1(cc(Br)ccc1F))C(=O)O

>  <INCHIKEY>  (1359) 
BYTRLZMUWHKJRH-QMMMGPOBSA-N

$$$$
Phe_23diF
     RDKit          2D

 14 14  0  0  0  0  0  0  0  0999 V2000
   -1.9599    1.7683    0.0000 N   0  0  0  0  0  0  0  0  0  0  0  0
   -2.1168    0.2766    0.0000 C   0  0  0  0  0  0  0  0  0  0  0  0
   -0.9034   -0.6052    0.0000 C   0  0  0  0  0  0  0  0  0  0  0  0
    0.4670    0.0047    0.0000 C   0  0  0  0  0  0  0  0  0  0  0  0
    0.6239    1.4965    0.0000 C   0  0  0  0  0  0  0  0  0  0  0  0
    1.9943    2.1065    0.0000 C   0  0  0  0  0  0  0  0  0  0  0  0
    3.2078    1.2247    0.0000 C   0  0  0  0  0  0  0  0  0  0  0  0
    3.0508   -0.2671    0.0000 C   0  0  0  0  0  0  0  0  0  0  0  0
    4.2643   -1.1489    0.0000 F   0  0  0  0  0  0  0  0  0  0  0  0
    1.6804   -0.8771    0.0000 C   0  0  0  0  0  0  0  0  0  0  0  0
    1.5235   -2.3688    0.0000 F   0  0  0  0  0  0  0  0  0  0  0  0
   -3.4872   -0.3334    0.0000 C   0  0  0  0  0  0  0  0  0  0  0  0
   -3.6441   -1.8252    0.0000 O   0  0  0  0  0  0  0  0  0  0  0  0
   -4.7006    0.5484    0.0000 O   0  0  0  0  0  0  0  0  0  0  0  0
  2  1  1  1
  2  3  1  0
  3  4  1  0
  4  5  2  0
  5  6  1  0
  6  7  2  0
  7  8  1  0
  8  9  1  0
  8 10  2  0
 10 11  1  0
  2 12  1  0
 12 13  2  0
 12 14  1  0
 10  4  1  0
M  END
>  <rName>  (1360) 
Phe_23diF

>  <PQ_SYMBOL>  (1360) 
Phe_23diF

>  <FULL_NAME>  (1360) 
(S)-2-amino-3-(2,3-difluorophenyl)propanoic acid

>  <IUPAC_CONDENSED>  (1360) 
Phe(2,3-diF)

>  <IUPAC>  (1360) 
(2S)-2-amino-3-(2,3-difluorophenyl)propanoic acid

>  <TYPE>  (1360) 
Backbone

>  <CLASS>  (1360) 
alpha

>  <ANALOG>  (1360) 
Phe

>  <MOL_WT>  (1360) 
201.17199999999997

>  <LOGP>  (1360) 
0.9192

>  <TPSA>  (1360) 
63.32000000000001

>  <POPULARITY>  (1360) 
6.6

>  <PROTECTED>  (1360) 
TRUE

>  <SMILES>  (1360) 
N[C@@H](Cc1(cccc(F)c1F))C(=O)O

>  <INCHIKEY>  (1360) 
KSUXKFDPNKLPHX-ZETCQYMHSA-N

$$$$
Gly_tetrahydropyran4yl
     RDKit          2D

 11 11  0  0  0  0  0  0  0  0999 V2000
   -1.6031   -2.0851    0.0000 N   0  0  0  0  0  0  0  0  0  0  0  0
   -1.1770   -0.6469    0.0000 C   0  0  0  0  0  0  0  0  0  0  0  0
    0.2816   -0.2968    0.0000 C   0  0  0  0  0  0  0  0  0  0  0  0
    0.7077    1.1415    0.0000 C   0  0  0  0  0  0  0  0  0  0  0  0
    2.1662    1.4916    0.0000 C   0  0  0  0  0  0  0  0  0  0  0  0
    3.1987    0.4035    0.0000 O   0  0  0  0  0  0  0  0  0  0  0  0
    2.7726   -1.0347    0.0000 C   0  0  0  0  0  0  0  0  0  0  0  0
    1.3141   -1.3849    0.0000 C   0  0  0  0  0  0  0  0  0  0  0  0
   -2.2095    0.4412    0.0000 C   0  0  0  0  0  0  0  0  0  0  0  0
   -1.7834    1.8794    0.0000 O   0  0  0  0  0  0  0  0  0  0  0  0
   -3.6680    0.0911    0.0000 O   0  0  0  0  0  0  0  0  0  0  0  0
  2  1  1  6
  2  3  1  0
  3  4  1  0
  4  5  1  0
  5  6  1  0
  6  7  1  0
  7  8  1  0
  2  9  1  0
  9 10  2  0
  9 11  1  0
  8  3  1  0
M  END
>  <rName>  (1361) 
Gly_tetrahydropyran4yl

>  <PQ_SYMBOL>  (1361) 
Gly_tetrahydropyran4yl

>  <FULL_NAME>  (1361) 
(S)-2-amino-2-(tetrahydro-2H-pyran-4-yl)acetic acid

>  <IUPAC_CONDENSED>  (1361) 
Gly(tetrahydropyran-4-yl)

>  <IUPAC>  (1361) 
(2S)-2-amino-2-(oxan-4-yl)acetic acid

>  <TYPE>  (1361) 
Backbone

>  <CLASS>  (1361) 
alpha

>  <ANALOG>  (1361) 
X

>  <MOL_WT>  (1361) 
159.185

>  <LOGP>  (1361) 
-0.17510000000000053

>  <TPSA>  (1361) 
72.55

>  <POPULARITY>  (1361) 
6.7

>  <PROTECTED>  (1361) 
TRUE

>  <SMILES>  (1361) 
N[C@@H](C1(CCOCC1))C(=O)O

>  <INCHIKEY>  (1361) 
XLZJPHKIECMDPG-LURJTMIESA-N

$$$$
hPhe_2OMe
     RDKit          2D

 15 15  0  0  0  0  0  0  0  0999 V2000
   -2.7831   -1.9835    0.0000 N   0  0  0  0  0  0  0  0  0  0  0  0
   -2.7742   -0.4835    0.0000 C   0  0  0  0  0  0  0  0  0  0  0  0
   -1.4707    0.2588    0.0000 C   0  0  0  0  0  0  0  0  0  0  0  0
   -0.1762   -0.4990    0.0000 C   0  0  0  0  0  0  0  0  0  0  0  0
    1.1273    0.2433    0.0000 C   0  0  0  0  0  0  0  0  0  0  0  0
    1.1362    1.7433    0.0000 C   0  0  0  0  0  0  0  0  0  0  0  0
    2.4397    2.4855    0.0000 C   0  0  0  0  0  0  0  0  0  0  0  0
    3.7343    1.7278    0.0000 C   0  0  0  0  0  0  0  0  0  0  0  0
    3.7253    0.2278    0.0000 C   0  0  0  0  0  0  0  0  0  0  0  0
    2.4219   -0.5144    0.0000 C   0  0  0  0  0  0  0  0  0  0  0  0
    2.4129   -2.0144    0.0000 O   0  0  0  0  0  0  0  0  0  0  0  0
    3.7075   -2.7721    0.0000 C   0  0  0  0  0  0  0  0  0  0  0  0
   -4.0688    0.2742    0.0000 C   0  0  0  0  0  0  0  0  0  0  0  0
   -4.0598    1.7742    0.0000 O   0  0  0  0  0  0  0  0  0  0  0  0
   -5.3722   -0.4680    0.0000 O   0  0  0  0  0  0  0  0  0  0  0  0
  2  1  1  6
  2  3  1  0
  3  4  1  0
  4  5  1  0
  5  6  2  0
  6  7  1  0
  7  8  2  0
  8  9  1  0
  9 10  2  0
 10 11  1  0
 11 12  1  0
  2 13  1  0
 13 14  2  0
 13 15  1  0
 10  5  1  0
M  END
>  <rName>  (1362) 
hPhe_2OMe

>  <PQ_SYMBOL>  (1362) 
hPhe_2OMe

>  <FULL_NAME>  (1362) 
(S)-2-amino-4-(2-methoxyphenyl)butanoic acid

>  <IUPAC_CONDENSED>  (1362) 
hPhe(2-OMe)

>  <IUPAC>  (1362) 
(2S)-2-amino-4-(2-methoxyphenyl)butanoic acid

>  <TYPE>  (1362) 
Backbone

>  <CLASS>  (1362) 
alpha

>  <ANALOG>  (1362) 
Tyr

>  <MOL_WT>  (1362) 
209.24499999999995

>  <LOGP>  (1362) 
1.0396999999999998

>  <TPSA>  (1362) 
72.55

>  <POPULARITY>  (1362) 
5.6

>  <PROTECTED>  (1362) 
TRUE

>  <SMILES>  (1362) 
N[C@@H](CCc1(ccccc1OC))C(=O)O

>  <INCHIKEY>  (1362) 
XHMOJLCCRFYKKC-VIFPVBQESA-N

$$$$
morpholine-2-CO2H
     RDKit          2D

  9  9  0  0  0  0  0  0  0  0999 V2000
    1.9167   -1.2990    0.0000 N   0  0  0  0  0  0  0  0  0  0  0  0
    0.4167   -1.2990    0.0000 C   0  0  0  0  0  0  0  0  0  0  0  0
   -0.3333    0.0000    0.0000 C   0  0  0  0  0  0  0  0  0  0  0  0
    0.4167    1.2990    0.0000 O   0  0  0  0  0  0  0  0  0  0  0  0
    1.9167    1.2990    0.0000 C   0  0  0  0  0  0  0  0  0  0  0  0
    2.6667    0.0000    0.0000 C   0  0  0  0  0  0  0  0  0  0  0  0
   -1.8333    0.0000    0.0000 C   0  0  0  0  0  0  0  0  0  0  0  0
   -2.5833   -1.2990    0.0000 O   0  0  0  0  0  0  0  0  0  0  0  0
   -2.5833    1.2990    0.0000 O   0  0  0  0  0  0  0  0  0  0  0  0
  1  2  1  0
  2  3  1  0
  3  4  1  0
  4  5  1  0
  5  6  1  0
  3  7  1  0
  7  8  2  0
  7  9  1  0
  6  1  1  0
M  END
>  <rName>  (1363) 
morpholine-2-CO2H

>  <PQ_SYMBOL>  (1363) 
morpholine-2-CO2H

>  <FULL_NAME>  (1363) 
morpholine-2-carboxylic acid

>  <IUPAC_CONDENSED>  (1363) 
morpholine-2-CO2H

>  <IUPAC>  (1363) 
morpholine-2-carboxylic acid

>  <TYPE>  (1363) 
Backbone

>  <CLASS>  (1363) 
beta

>  <ANALOG>  (1363) 
Pro

>  <MOL_WT>  (1363) 
131.131

>  <LOGP>  (1363) 
-0.9406000000000001

>  <TPSA>  (1363) 
58.56

>  <POPULARITY>  (1363) 
11

>  <PROTECTED>  (1363) 
TRUE

>  <SMILES>  (1363) 
N1CC(OCC1)C(=O)O

>  <INCHIKEY>  (1363) 
FYCRNRZIEVLZDO-UHFFFAOYSA-N

$$$$
Pro_3RPh
     RDKit          2D

 14 15  0  0  0  0  0  0  0  0999 V2000
   -2.9834    0.7769    0.0000 N   0  0  0  0  0  0  0  0  0  0  0  0
   -1.7417   -0.0646    0.0000 C   0  0  0  0  0  0  0  0  0  0  0  0
   -0.5576    0.8562    0.0000 C   0  0  0  0  0  0  0  0  0  0  0  0
   -1.0675    2.2669    0.0000 C   0  0  0  0  0  0  0  0  0  0  0  0
   -2.5667    2.2179    0.0000 C   0  0  0  0  0  0  0  0  0  0  0  0
    0.8833    0.4396    0.0000 C   0  0  0  0  0  0  0  0  0  0  0  0
    1.2430   -1.0167    0.0000 C   0  0  0  0  0  0  0  0  0  0  0  0
    2.6840   -1.4333    0.0000 C   0  0  0  0  0  0  0  0  0  0  0  0
    3.7653   -0.3937    0.0000 C   0  0  0  0  0  0  0  0  0  0  0  0
    3.4056    1.0625    0.0000 C   0  0  0  0  0  0  0  0  0  0  0  0
    1.9647    1.4792    0.0000 C   0  0  0  0  0  0  0  0  0  0  0  0
   -1.6927   -1.5638    0.0000 C   0  0  0  0  0  0  0  0  0  0  0  0
   -0.3698   -2.2710    0.0000 O   0  0  0  0  0  0  0  0  0  0  0  0
   -2.9665   -2.3559    0.0000 O   0  0  0  0  0  0  0  0  0  0  0  0
  1  2  1  0
  2  3  1  0
  3  4  1  0
  4  5  1  0
  3  6  1  6
  6  7  2  0
  7  8  1  0
  8  9  2  0
  9 10  1  0
 10 11  2  0
  2 12  1  1
 12 13  2  0
 12 14  1  0
  5  1  1  0
 11  6  1  0
M  END
>  <rName>  (1364) 
Pro_3RPh

>  <PQ_SYMBOL>  (1364) 
Pro_3RPh

>  <FULL_NAME>  (1364) 
(2S,3R)-3-phenylpyrrolidine-2-carboxylic acid

>  <IUPAC_CONDENSED>  (1364) 
Pro(3R-Ph)

>  <IUPAC>  (1364) 
(2S,3R)-3-phenylpyrrolidine-2-carboxylic acid

>  <TYPE>  (1364) 
Backbone

>  <CLASS>  (1364) 
alpha

>  <ANALOG>  (1364) 
Pro

>  <MOL_WT>  (1364) 
191.23

>  <LOGP>  (1364) 
1.2167

>  <TPSA>  (1364) 
49.33

>  <POPULARITY>  (1364) 
8.7

>  <PROTECTED>  (1364) 
TRUE

>  <SMILES>  (1364) 
N1[C@@H]([C@H](CC1)c2(ccccc2))C(=O)O

>  <INCHIKEY>  (1364) 
VDEMEKSASUGYHM-ZJUUUORDSA-N

$$$$
D-hPhe_3Cl
     RDKit          2D

 14 14  0  0  0  0  0  0  0  0999 V2000
   -2.9179   -2.0082    0.0000 N   0  0  0  0  0  0  0  0  0  0  0  0
   -2.7604   -0.5165    0.0000 C   0  0  0  0  0  0  0  0  0  0  0  0
   -1.3898    0.0929    0.0000 C   0  0  0  0  0  0  0  0  0  0  0  0
   -0.1767   -0.7894    0.0000 C   0  0  0  0  0  0  0  0  0  0  0  0
    1.1939   -0.1800    0.0000 C   0  0  0  0  0  0  0  0  0  0  0  0
    1.3515    1.3117    0.0000 C   0  0  0  0  0  0  0  0  0  0  0  0
    2.7221    1.9211    0.0000 C   0  0  0  0  0  0  0  0  0  0  0  0
    3.9352    1.0388    0.0000 C   0  0  0  0  0  0  0  0  0  0  0  0
    3.7777   -0.4529    0.0000 C   0  0  0  0  0  0  0  0  0  0  0  0
    4.9907   -1.3352    0.0000 Cl  0  0  0  0  0  0  0  0  0  0  0  0
    2.4070   -1.0623    0.0000 C   0  0  0  0  0  0  0  0  0  0  0  0
   -3.9735    0.3658    0.0000 C   0  0  0  0  0  0  0  0  0  0  0  0
   -3.8159    1.8575    0.0000 O   0  0  0  0  0  0  0  0  0  0  0  0
   -5.3441   -0.2436    0.0000 O   0  0  0  0  0  0  0  0  0  0  0  0
  2  1  1  1
  2  3  1  0
  3  4  1  0
  4  5  1  0
  5  6  2  0
  6  7  1  0
  7  8  2  0
  8  9  1  0
  9 10  1  0
  9 11  2  0
  2 12  1  0
 12 13  2  0
 12 14  1  0
 11  5  1  0
M  END
>  <rName>  (1365) 
D-hPhe_3Cl

>  <PQ_SYMBOL>  (1365) 
D-hPhe_3Cl

>  <FULL_NAME>  (1365) 
(R)-2-amino-4-(3-chlorophenyl)butanoic acid

>  <IUPAC_CONDENSED>  (1365) 
D-hPhe(3-Cl)

>  <IUPAC>  (1365) 
(2R)-2-amino-4-(3-chlorophenyl)butanoic acid

>  <TYPE>  (1365) 
Backbone

>  <CLASS>  (1365) 
alpha

>  <ANALOG>  (1365) 
Phe

>  <MOL_WT>  (1365) 
213.664

>  <LOGP>  (1365) 
1.6844999999999999

>  <TPSA>  (1365) 
63.32000000000001

>  <POPULARITY>  (1365) 
6

>  <PROTECTED>  (1365) 
TRUE

>  <SMILES>  (1365) 
N[C@H](CCc1(cccc(Cl)c1))C(=O)O

>  <INCHIKEY>  (1365) 
XHVNXVGEFJHTMY-SECBINFHSA-N

$$$$
NMe-bAla_3SMe
     RDKit          2D

  8  7  0  0  0  0  0  0  0  0999 V2000
    2.3370   -0.1514    0.0000 N   0  0  0  0  0  0  0  0  0  0  0  0
    2.7906    1.2784    0.0000 C   0  0  0  0  0  0  0  0  0  0  0  0
    0.8719   -0.4734    0.0000 C   0  0  0  0  0  0  0  0  0  0  0  0
    0.4183   -1.9031    0.0000 C   0  0  0  0  0  0  0  0  0  0  0  0
   -0.1394    0.6344    0.0000 C   0  0  0  0  0  0  0  0  0  0  0  0
   -1.6045    0.3124    0.0000 C   0  0  0  0  0  0  0  0  0  0  0  0
   -2.0581   -1.1174    0.0000 O   0  0  0  0  0  0  0  0  0  0  0  0
   -2.6158    1.4201    0.0000 O   0  0  0  0  0  0  0  0  0  0  0  0
  1  2  1  0
  1  3  1  0
  3  4  1  1
  3  5  1  0
  5  6  1  0
  6  7  2  0
  6  8  1  0
M  END
>  <rName>  (1366) 
NMe-bAla_3SMe

>  <PQ_SYMBOL>  (1366) 
NMe-bAla_3SMe

>  <FULL_NAME>  (1366) 
(S)-3-(methylamino)butanoic acid

>  <IUPAC_CONDENSED>  (1366) 
Me-bAla(3S-Me)

>  <IUPAC>  (1366) 
(3S)-3-(methylamino)butanoic acid

>  <TYPE>  (1366) 
Backbone

>  <CLASS>  (1366) 
beta

>  <ANALOG>  (1366) 
Ala

>  <MOL_WT>  (1366) 
117.14799999999998

>  <LOGP>  (1366) 
0.06899999999999967

>  <TPSA>  (1366) 
49.33

>  <POPULARITY>  (1366) 
16.4

>  <PROTECTED>  (1366) 
TRUE

>  <SMILES>  (1366) 
N(C)[C@@H](C)CC(=O)O

>  <INCHIKEY>  (1366) 
VWQSQYOPIHNGBY-BYPYZUCNSA-N

$$$$
Pro_5RMe
     RDKit          2D

  9  9  0  0  0  0  0  0  0  0999 V2000
   -0.6334   -0.9301    0.0000 N   0  0  0  0  0  0  0  0  0  0  0  0
    0.4598    0.0969    0.0000 C   0  0  0  0  0  0  0  0  0  0  0  0
   -0.1792    1.4541    0.0000 C   0  0  0  0  0  0  0  0  0  0  0  0
   -1.6673    1.2657    0.0000 C   0  0  0  0  0  0  0  0  0  0  0  0
   -1.9481   -0.2077    0.0000 C   0  0  0  0  0  0  0  0  0  0  0  0
   -3.3052   -0.8467    0.0000 C   0  0  0  0  0  0  0  0  0  0  0  0
    1.9333   -0.1838    0.0000 C   0  0  0  0  0  0  0  0  0  0  0  0
    2.9132    0.9519    0.0000 O   0  0  0  0  0  0  0  0  0  0  0  0
    2.4269   -1.6003    0.0000 O   0  0  0  0  0  0  0  0  0  0  0  0
  1  2  1  0
  2  3  1  0
  3  4  1  0
  4  5  1  0
  5  6  1  6
  2  7  1  1
  7  8  2  0
  7  9  1  0
  5  1  1  0
M  END
>  <rName>  (1367) 
Pro_5RMe

>  <PQ_SYMBOL>  (1367) 
Pro_5RMe

>  <FULL_NAME>  (1367) 
(2S,5R)-5-methylpyrrolidine-2-carboxylic acid

>  <IUPAC_CONDENSED>  (1367) 
Pro(5R-Me)

>  <IUPAC>  (1367) 
(2S,5R)-5-methylpyrrolidine-2-carboxylic acid

>  <TYPE>  (1367) 
Backbone

>  <CLASS>  (1367) 
alpha

>  <ANALOG>  (1367) 
Pro

>  <MOL_WT>  (1367) 
129.159

>  <LOGP>  (1367) 
0.21149999999999974

>  <TPSA>  (1367) 
49.33

>  <POPULARITY>  (1367) 
10.3

>  <PROTECTED>  (1367) 
TRUE

>  <SMILES>  (1367) 
N1[C@@H](CC[C@H]1C)C(=O)O

>  <INCHIKEY>  (1367) 
YNSYWEFVEIFJPZ-UHNVWZDZSA-N

$$$$
Nle_octyl
     RDKit          2D

 17 16  0  0  0  0  0  0  0  0999 V2000
    5.6454   -1.8810    0.0000 N   0  0  0  0  0  0  0  0  0  0  0  0
    5.6528   -0.3810    0.0000 C   0  0  0  0  0  0  0  0  0  0  0  0
    4.3575    0.3754    0.0000 C   0  0  0  0  0  0  0  0  0  0  0  0
    3.0548   -0.3681    0.0000 C   0  0  0  0  0  0  0  0  0  0  0  0
    1.7595    0.3883    0.0000 C   0  0  0  0  0  0  0  0  0  0  0  0
    0.4567   -0.3552    0.0000 C   0  0  0  0  0  0  0  0  0  0  0  0
   -0.8386    0.4012    0.0000 C   0  0  0  0  0  0  0  0  0  0  0  0
   -2.1413   -0.3423    0.0000 C   0  0  0  0  0  0  0  0  0  0  0  0
   -3.4366    0.4141    0.0000 C   0  0  0  0  0  0  0  0  0  0  0  0
   -4.7394   -0.3294    0.0000 C   0  0  0  0  0  0  0  0  0  0  0  0
   -6.0347    0.4270    0.0000 C   0  0  0  0  0  0  0  0  0  0  0  0
   -7.3374   -0.3165    0.0000 C   0  0  0  0  0  0  0  0  0  0  0  0
   -8.6327    0.4399    0.0000 C   0  0  0  0  0  0  0  0  0  0  0  0
   -9.9355   -0.3036    0.0000 C   0  0  0  0  0  0  0  0  0  0  0  0
    6.9556    0.3625    0.0000 C   0  0  0  0  0  0  0  0  0  0  0  0
    6.9630    1.8625    0.0000 O   0  0  0  0  0  0  0  0  0  0  0  0
    8.2509   -0.3939    0.0000 O   0  0  0  0  0  0  0  0  0  0  0  0
  2  1  1  1
  2  3  1  0
  3  4  1  0
  4  5  1  0
  5  6  1  0
  6  7  1  0
  7  8  1  0
  8  9  1  0
  9 10  1  0
 10 11  1  0
 11 12  1  0
 12 13  1  0
 13 14  1  0
  2 15  1  0
 15 16  2  0
 15 17  1  0
M  END
>  <rName>  (1368) 
Nle_octyl

>  <PQ_SYMBOL>  (1368) 
Nle_octyl

>  <FULL_NAME>  (1368) 
(S)-2-aminotetradecanoic acid

>  <IUPAC_CONDENSED>  (1368) 
Nle(octyl)

>  <IUPAC>  (1368) 
(2S)-2-aminotetradecanoic acid

>  <TYPE>  (1368) 
Backbone

>  <CLASS>  (1368) 
alpha

>  <ANALOG>  (1368) 
X

>  <MOL_WT>  (1368) 
243.39099999999996

>  <LOGP>  (1368) 
3.7093000000000025

>  <TPSA>  (1368) 
63.32000000000001

>  <POPULARITY>  (1368) 
8.3

>  <PROTECTED>  (1368) 
TRUE

>  <SMILES>  (1368) 
N[C@@H](CCCCCCCCCCCC)C(=O)O

>  <INCHIKEY>  (1368) 
BVXKPGXJOLWHFI-ZDUSSCGKSA-N

$$$$
D-Phe_4Ac
     RDKit          2D

 15 15  0  0  0  0  0  0  0  0999 V2000
   -2.2547    1.6872    0.0000 N   0  0  0  0  0  0  0  0  0  0  0  0
   -2.7489    0.2709    0.0000 C   0  0  0  0  0  0  0  0  0  0  0  0
   -1.7696   -0.8652    0.0000 C   0  0  0  0  0  0  0  0  0  0  0  0
   -0.2959   -0.5852    0.0000 C   0  0  0  0  0  0  0  0  0  0  0  0
    0.1983    0.8311    0.0000 C   0  0  0  0  0  0  0  0  0  0  0  0
    1.6719    1.1111    0.0000 C   0  0  0  0  0  0  0  0  0  0  0  0
    2.6513   -0.0250    0.0000 C   0  0  0  0  0  0  0  0  0  0  0  0
    2.1570   -1.4413    0.0000 C   0  0  0  0  0  0  0  0  0  0  0  0
    0.6834   -1.7213    0.0000 C   0  0  0  0  0  0  0  0  0  0  0  0
    4.1249    0.2550    0.0000 C   0  0  0  0  0  0  0  0  0  0  0  0
    4.6192    1.6713    0.0000 O   0  0  0  0  0  0  0  0  0  0  0  0
    5.1043   -0.8811    0.0000 C   0  0  0  0  0  0  0  0  0  0  0  0
   -4.2225   -0.0091    0.0000 C   0  0  0  0  0  0  0  0  0  0  0  0
   -4.7168   -1.4254    0.0000 O   0  0  0  0  0  0  0  0  0  0  0  0
   -5.2019    1.1270    0.0000 O   0  0  0  0  0  0  0  0  0  0  0  0
  2  1  1  6
  2  3  1  0
  3  4  1  0
  4  5  1  0
  5  6  2  0
  6  7  1  0
  7  8  2  0
  8  9  1  0
  7 10  1  0
 10 11  2  0
 10 12  1  0
  2 13  1  0
 13 14  2  0
 13 15  1  0
  9  4  2  0
M  END
>  <rName>  (1369) 
D-Phe_4Ac

>  <PQ_SYMBOL>  (1369) 
D-Phe_4Ac

>  <FULL_NAME>  (1369) 
(R)-3-(4-acetylphenyl)-2-aminopropanoic acid

>  <IUPAC_CONDENSED>  (1369) 
D-Phe(4-Ac)

>  <IUPAC>  (1369) 
(2R)-3-(4-(acetyl)phenyl)-2-aminopropanoic acid

>  <TYPE>  (1369) 
Backbone

>  <CLASS>  (1369) 
alpha

>  <ANALOG>  (1369) 
Phe

>  <MOL_WT>  (1369) 
207.22899999999996

>  <LOGP>  (1369) 
0.8435999999999999

>  <TPSA>  (1369) 
80.39

>  <POPULARITY>  (1369) 
8.2

>  <PROTECTED>  (1369) 
TRUE

>  <SMILES>  (1369) 
N[C@H](Cc1(ccc(cc1)C(=O)C))C(=O)O

>  <INCHIKEY>  (1369) 
ZXSBHXZKWRIEIA-SNVBAGLBSA-N

$$$$
NMe-3-oxa-Ac4c
     RDKit          2D

  9  9  0  0  0  0  0  0  0  0999 V2000
   -0.5215   -1.3307    0.0000 N   0  0  0  0  0  0  0  0  0  0  0  0
   -1.9619   -1.7491    0.0000 C   0  0  0  0  0  0  0  0  0  0  0  0
   -0.1637    0.1260    0.0000 C   0  0  0  0  0  0  0  0  0  0  0  0
   -1.6204    0.4838    0.0000 C   0  0  0  0  0  0  0  0  0  0  0  0
   -1.2625    1.9405    0.0000 O   0  0  0  0  0  0  0  0  0  0  0  0
    0.1942    1.5827    0.0000 C   0  0  0  0  0  0  0  0  0  0  0  0
    1.2930   -0.2318    0.0000 C   0  0  0  0  0  0  0  0  0  0  0  0
    2.3313    0.8508    0.0000 O   0  0  0  0  0  0  0  0  0  0  0  0
    1.7115   -1.6723    0.0000 O   0  0  0  0  0  0  0  0  0  0  0  0
  1  2  1  0
  1  3  1  0
  3  4  1  0
  4  5  1  0
  5  6  1  0
  3  7  1  0
  7  8  2  0
  7  9  1  0
  6  3  1  0
M  END
>  <rName>  (1370) 
NMe-3-oxa-Ac4c

>  <PQ_SYMBOL>  (1370) 
NMe-3-oxa-Ac4c

>  <FULL_NAME>  (1370) 
3-(methylamino)oxetane-3-carboxylic acid

>  <IUPAC_CONDENSED>  (1370) 
Me-3-oxa-Ac4c

>  <IUPAC>  (1370) 
3-(methylamino)-1-oxacyclobutane-3-carboxylic acid

>  <TYPE>  (1370) 
Backbone

>  <CLASS>  (1370) 
alpha

>  <ANALOG>  (1370) 
Ser

>  <MOL_WT>  (1370) 
131.131

>  <LOGP>  (1370) 
-0.9406000000000001

>  <TPSA>  (1370) 
58.56

>  <POPULARITY>  (1370) 
7

>  <PROTECTED>  (1370) 
TRUE

>  <SMILES>  (1370) 
N(C)C1(COC1)C(=O)O

>  <INCHIKEY>  (1370) 
UFXHHNPUXSLYAC-UHFFFAOYSA-N

$$$$
D-hPhe_3Me
     RDKit          2D

 14 14  0  0  0  0  0  0  0  0999 V2000
   -2.9179   -2.0082    0.0000 N   0  0  0  0  0  0  0  0  0  0  0  0
   -2.7604   -0.5165    0.0000 C   0  0  0  0  0  0  0  0  0  0  0  0
   -1.3898    0.0929    0.0000 C   0  0  0  0  0  0  0  0  0  0  0  0
   -0.1767   -0.7894    0.0000 C   0  0  0  0  0  0  0  0  0  0  0  0
    1.1939   -0.1800    0.0000 C   0  0  0  0  0  0  0  0  0  0  0  0
    1.3515    1.3117    0.0000 C   0  0  0  0  0  0  0  0  0  0  0  0
    2.7221    1.9211    0.0000 C   0  0  0  0  0  0  0  0  0  0  0  0
    3.9352    1.0388    0.0000 C   0  0  0  0  0  0  0  0  0  0  0  0
    3.7777   -0.4529    0.0000 C   0  0  0  0  0  0  0  0  0  0  0  0
    4.9907   -1.3352    0.0000 C   0  0  0  0  0  0  0  0  0  0  0  0
    2.4070   -1.0623    0.0000 C   0  0  0  0  0  0  0  0  0  0  0  0
   -3.9735    0.3658    0.0000 C   0  0  0  0  0  0  0  0  0  0  0  0
   -3.8159    1.8575    0.0000 O   0  0  0  0  0  0  0  0  0  0  0  0
   -5.3441   -0.2436    0.0000 O   0  0  0  0  0  0  0  0  0  0  0  0
  2  1  1  1
  2  3  1  0
  3  4  1  0
  4  5  1  0
  5  6  2  0
  6  7  1  0
  7  8  2  0
  8  9  1  0
  9 10  1  0
  9 11  2  0
  2 12  1  0
 12 13  2  0
 12 14  1  0
 11  5  1  0
M  END
>  <rName>  (1371) 
D-hPhe_3Me

>  <PQ_SYMBOL>  (1371) 
D-hPhe_3Me

>  <FULL_NAME>  (1371) 
(R)-2-amino-4-(m-tolyl)butanoic acid

>  <IUPAC_CONDENSED>  (1371) 
D-hPhe(3-Me)

>  <IUPAC>  (1371) 
(2R)-2-amino-4-(3-methylphenyl)butanoic acid

>  <TYPE>  (1371) 
Backbone

>  <CLASS>  (1371) 
alpha

>  <ANALOG>  (1371) 
Phe

>  <MOL_WT>  (1371) 
193.24599999999998

>  <LOGP>  (1371) 
1.3395199999999998

>  <TPSA>  (1371) 
63.32000000000001

>  <POPULARITY>  (1371) 
6.6

>  <PROTECTED>  (1371) 
TRUE

>  <SMILES>  (1371) 
N[C@H](CCc1(cccc(C)c1))C(=O)O

>  <INCHIKEY>  (1371) 
HEJMMMOBDAVUBT-SNVBAGLBSA-N

$$$$
hPhe_3Me
     RDKit          2D

 14 14  0  0  0  0  0  0  0  0999 V2000
   -2.9179   -2.0082    0.0000 N   0  0  0  0  0  0  0  0  0  0  0  0
   -2.7604   -0.5165    0.0000 C   0  0  0  0  0  0  0  0  0  0  0  0
   -1.3898    0.0929    0.0000 C   0  0  0  0  0  0  0  0  0  0  0  0
   -0.1767   -0.7894    0.0000 C   0  0  0  0  0  0  0  0  0  0  0  0
    1.1939   -0.1800    0.0000 C   0  0  0  0  0  0  0  0  0  0  0  0
    1.3515    1.3117    0.0000 C   0  0  0  0  0  0  0  0  0  0  0  0
    2.7221    1.9211    0.0000 C   0  0  0  0  0  0  0  0  0  0  0  0
    3.9352    1.0388    0.0000 C   0  0  0  0  0  0  0  0  0  0  0  0
    3.7777   -0.4529    0.0000 C   0  0  0  0  0  0  0  0  0  0  0  0
    4.9907   -1.3352    0.0000 C   0  0  0  0  0  0  0  0  0  0  0  0
    2.4070   -1.0623    0.0000 C   0  0  0  0  0  0  0  0  0  0  0  0
   -3.9735    0.3658    0.0000 C   0  0  0  0  0  0  0  0  0  0  0  0
   -3.8159    1.8575    0.0000 O   0  0  0  0  0  0  0  0  0  0  0  0
   -5.3441   -0.2436    0.0000 O   0  0  0  0  0  0  0  0  0  0  0  0
  2  1  1  6
  2  3  1  0
  3  4  1  0
  4  5  1  0
  5  6  2  0
  6  7  1  0
  7  8  2  0
  8  9  1  0
  9 10  1  0
  9 11  2  0
  2 12  1  0
 12 13  2  0
 12 14  1  0
 11  5  1  0
M  END
>  <rName>  (1372) 
hPhe_3Me

>  <PQ_SYMBOL>  (1372) 
hPhe_3Me

>  <FULL_NAME>  (1372) 
(S)-2-amino-4-(m-tolyl)butanoic acid

>  <IUPAC_CONDENSED>  (1372) 
hPhe(3-Me)

>  <IUPAC>  (1372) 
(2S)-2-amino-4-(3-methylphenyl)butanoic acid

>  <TYPE>  (1372) 
Backbone

>  <CLASS>  (1372) 
alpha

>  <ANALOG>  (1372) 
Phe

>  <MOL_WT>  (1372) 
193.24599999999998

>  <LOGP>  (1372) 
1.3395199999999998

>  <TPSA>  (1372) 
63.32000000000001

>  <POPULARITY>  (1372) 
8.4

>  <PROTECTED>  (1372) 
TRUE

>  <SMILES>  (1372) 
N[C@@H](CCc1(cccc(C)c1))C(=O)O

>  <INCHIKEY>  (1372) 
HEJMMMOBDAVUBT-JTQLQIEISA-N

$$$$
bAla_2naphth1yl
     RDKit          2D

 16 17  0  0  0  0  0  0  0  0999 V2000
   -4.3474   -0.5750    0.0000 N   0  0  0  0  0  0  0  0  0  0  0  0
   -2.9738   -1.1777    0.0000 C   0  0  0  0  0  0  0  0  0  0  0  0
   -1.7651   -0.2895    0.0000 C   0  0  0  0  0  0  0  0  0  0  0  0
   -0.3915   -0.8922    0.0000 C   0  0  0  0  0  0  0  0  0  0  0  0
   -0.2266   -2.3831    0.0000 C   0  0  0  0  0  0  0  0  0  0  0  0
    1.1470   -2.9858    0.0000 C   0  0  0  0  0  0  0  0  0  0  0  0
    2.3557   -2.0976    0.0000 C   0  0  0  0  0  0  0  0  0  0  0  0
    2.1909   -0.6067    0.0000 C   0  0  0  0  0  0  0  0  0  0  0  0
    3.3996    0.2816    0.0000 C   0  0  0  0  0  0  0  0  0  0  0  0
    3.2348    1.7725    0.0000 C   0  0  0  0  0  0  0  0  0  0  0  0
    1.8612    2.3752    0.0000 C   0  0  0  0  0  0  0  0  0  0  0  0
    0.6524    1.4870    0.0000 C   0  0  0  0  0  0  0  0  0  0  0  0
    0.8173   -0.0040    0.0000 C   0  0  0  0  0  0  0  0  0  0  0  0
   -1.9299    1.2014    0.0000 C   0  0  0  0  0  0  0  0  0  0  0  0
   -0.7212    2.0897    0.0000 O   0  0  0  0  0  0  0  0  0  0  0  0
   -3.3035    1.8041    0.0000 O   0  0  0  0  0  0  0  0  0  0  0  0
  1  2  1  0
  2  3  1  0
  3  4  1  0
  4  5  2  0
  5  6  1  0
  6  7  2  0
  7  8  1  0
  8  9  2  0
  9 10  1  0
 10 11  2  0
 11 12  1  0
 12 13  2  0
  3 14  1  0
 14 15  2  0
 14 16  1  0
 13  8  1  0
 13  4  1  0
M  END
>  <rName>  (1373) 
bAla_2naphth1yl

>  <PQ_SYMBOL>  (1373) 
bAla_2naphth1yl

>  <FULL_NAME>  (1373) 
3-amino-2-(naphthalen-1-yl)propanoic acid

>  <IUPAC_CONDENSED>  (1373) 
bAla(2-naphth-1-yl)

>  <IUPAC>  (1373) 
3-amino-2-(naphthalen-1-yl)propanoic acid

>  <TYPE>  (1373) 
Backbone

>  <CLASS>  (1373) 
beta

>  <ANALOG>  (1373) 
X

>  <MOL_WT>  (1373) 
215.25199999999998

>  <LOGP>  (1373) 
1.9667000000000001

>  <TPSA>  (1373) 
63.32000000000001

>  <POPULARITY>  (1373) 
6.7

>  <PROTECTED>  (1373) 
TRUE

>  <SMILES>  (1373) 
NCC(c2(cccc1(ccccc12)))C(=O)O

>  <INCHIKEY>  (1373) 
ZWJNCOMXRFGWCT-UHFFFAOYSA-N

$$$$
bAla_2naphth2yl
     RDKit          2D

 16 17  0  0  0  0  0  0  0  0999 V2000
   -4.0404    2.1493    0.0000 N   0  0  0  0  0  0  0  0  0  0  0  0
   -2.5894    1.7692    0.0000 C   0  0  0  0  0  0  0  0  0  0  0  0
   -2.1930    0.3226    0.0000 C   0  0  0  0  0  0  0  0  0  0  0  0
   -0.7419   -0.0575    0.0000 C   0  0  0  0  0  0  0  0  0  0  0  0
   -0.3455   -1.5042    0.0000 C   0  0  0  0  0  0  0  0  0  0  0  0
    1.1056   -1.8842    0.0000 C   0  0  0  0  0  0  0  0  0  0  0  0
    2.1602   -0.8176    0.0000 C   0  0  0  0  0  0  0  0  0  0  0  0
    3.6113   -1.1976    0.0000 C   0  0  0  0  0  0  0  0  0  0  0  0
    4.6659   -0.1310    0.0000 C   0  0  0  0  0  0  0  0  0  0  0  0
    4.2695    1.3157    0.0000 C   0  0  0  0  0  0  0  0  0  0  0  0
    2.8185    1.6957    0.0000 C   0  0  0  0  0  0  0  0  0  0  0  0
    1.7638    0.6291    0.0000 C   0  0  0  0  0  0  0  0  0  0  0  0
    0.3128    1.0092    0.0000 C   0  0  0  0  0  0  0  0  0  0  0  0
   -3.2476   -0.7441    0.0000 C   0  0  0  0  0  0  0  0  0  0  0  0
   -2.8512   -2.1907    0.0000 O   0  0  0  0  0  0  0  0  0  0  0  0
   -4.6987   -0.3640    0.0000 O   0  0  0  0  0  0  0  0  0  0  0  0
  1  2  1  0
  2  3  1  0
  3  4  1  0
  4  5  1  0
  5  6  2  0
  6  7  1  0
  7  8  2  0
  8  9  1  0
  9 10  2  0
 10 11  1  0
 11 12  2  0
 12 13  1  0
  3 14  1  0
 14 15  2  0
 14 16  1  0
 12  7  1  0
 13  4  2  0
M  END
>  <rName>  (1374) 
bAla_2naphth2yl

>  <PQ_SYMBOL>  (1374) 
bAla_2naphth2yl

>  <FULL_NAME>  (1374) 
3-amino-2-(naphthalen-2-yl)propanoic acid

>  <IUPAC_CONDENSED>  (1374) 
bAla(2-naphth-2-yl)

>  <IUPAC>  (1374) 
3-amino-2-(naphthalen-2-yl)propanoic acid

>  <TYPE>  (1374) 
Backbone

>  <CLASS>  (1374) 
beta

>  <ANALOG>  (1374) 
X

>  <MOL_WT>  (1374) 
215.25199999999998

>  <LOGP>  (1374) 
1.9667000000000001

>  <TPSA>  (1374) 
63.32000000000001

>  <POPULARITY>  (1374) 
5.4

>  <PROTECTED>  (1374) 
TRUE

>  <SMILES>  (1374) 
NCC(c2(ccc1(ccccc1c2)))C(=O)O

>  <INCHIKEY>  (1374) 
XEFMMAOXYIOPSX-UHFFFAOYSA-N

$$$$
hPhe_2F
     RDKit          2D

 14 14  0  0  0  0  0  0  0  0999 V2000
   -2.7345   -1.9034    0.0000 N   0  0  0  0  0  0  0  0  0  0  0  0
   -2.5673   -0.4128    0.0000 C   0  0  0  0  0  0  0  0  0  0  0  0
   -1.1928    0.1877    0.0000 C   0  0  0  0  0  0  0  0  0  0  0  0
    0.0146   -0.7024    0.0000 C   0  0  0  0  0  0  0  0  0  0  0  0
    1.3891   -0.1019    0.0000 C   0  0  0  0  0  0  0  0  0  0  0  0
    1.5563    1.3887    0.0000 C   0  0  0  0  0  0  0  0  0  0  0  0
    2.9309    1.9892    0.0000 C   0  0  0  0  0  0  0  0  0  0  0  0
    4.1382    1.0991    0.0000 C   0  0  0  0  0  0  0  0  0  0  0  0
    3.9710   -0.3916    0.0000 C   0  0  0  0  0  0  0  0  0  0  0  0
    2.5965   -0.9921    0.0000 C   0  0  0  0  0  0  0  0  0  0  0  0
    2.4292   -2.4827    0.0000 F   0  0  0  0  0  0  0  0  0  0  0  0
   -3.7746    0.4773    0.0000 C   0  0  0  0  0  0  0  0  0  0  0  0
   -3.6074    1.9680    0.0000 O   0  0  0  0  0  0  0  0  0  0  0  0
   -5.1492   -0.1232    0.0000 O   0  0  0  0  0  0  0  0  0  0  0  0
  2  1  1  6
  2  3  1  0
  3  4  1  0
  4  5  1  0
  5  6  2  0
  6  7  1  0
  7  8  2  0
  8  9  1  0
  9 10  2  0
 10 11  1  0
  2 12  1  0
 12 13  2  0
 12 14  1  0
 10  5  1  0
M  END
>  <rName>  (1375) 
hPhe_2F

>  <PQ_SYMBOL>  (1375) 
hPhe_2F

>  <FULL_NAME>  (1375) 
(S)-2-amino-4-(2-fluorophenyl)butanoic acid

>  <IUPAC_CONDENSED>  (1375) 
hPhe(2-F)

>  <IUPAC>  (1375) 
(2S)-2-amino-4-(2-fluorophenyl)butanoic acid

>  <TYPE>  (1375) 
Backbone

>  <CLASS>  (1375) 
alpha

>  <ANALOG>  (1375) 
Phe

>  <MOL_WT>  (1375) 
197.20899999999995

>  <LOGP>  (1375) 
1.1702

>  <TPSA>  (1375) 
63.32000000000001

>  <POPULARITY>  (1375) 
6.5

>  <PROTECTED>  (1375) 
TRUE

>  <SMILES>  (1375) 
N[C@@H](CCc1(ccccc1F))C(=O)O

>  <INCHIKEY>  (1375) 
HKDDGWLHCOPIQU-VIFPVBQESA-N

$$$$
NMe-5-Ava
     RDKit          2D

  9  8  0  0  0  0  0  0  0  0999 V2000
    3.6312   -0.4188    0.0000 N   0  0  0  0  0  0  0  0  0  0  0  0
    4.8948    0.3895    0.0000 C   0  0  0  0  0  0  0  0  0  0  0  0
    2.2994    0.2714    0.0000 C   0  0  0  0  0  0  0  0  0  0  0  0
    1.0358   -0.5368    0.0000 C   0  0  0  0  0  0  0  0  0  0  0  0
   -0.2960    0.1534    0.0000 C   0  0  0  0  0  0  0  0  0  0  0  0
   -1.5596   -0.6549    0.0000 C   0  0  0  0  0  0  0  0  0  0  0  0
   -2.8913    0.0353    0.0000 C   0  0  0  0  0  0  0  0  0  0  0  0
   -2.9595    1.5338    0.0000 O   0  0  0  0  0  0  0  0  0  0  0  0
   -4.1550   -0.7729    0.0000 O   0  0  0  0  0  0  0  0  0  0  0  0
  1  2  1  0
  1  3  1  0
  3  4  1  0
  4  5  1  0
  5  6  1  0
  6  7  1  0
  7  8  2  0
  7  9  1  0
M  END
>  <rName>  (1376) 
NMe-5-Ava

>  <PQ_SYMBOL>  (1376) 
NMe-5-Ava

>  <FULL_NAME>  (1376) 
5-(methylamino)pentanoic acid

>  <IUPAC_CONDENSED>  (1376) 
Me-5-Ava

>  <IUPAC>  (1376) 
5-(methylamino)pentanoic acid

>  <TYPE>  (1376) 
Backbone

>  <CLASS>  (1376) 
delta

>  <ANALOG>  (1376) 
Gly

>  <MOL_WT>  (1376) 
131.175

>  <LOGP>  (1376) 
0.46069999999999983

>  <TPSA>  (1376) 
49.33

>  <POPULARITY>  (1376) 
17.9

>  <PROTECTED>  (1376) 
TRUE

>  <SMILES>  (1376) 
N(C)CCCCC(=O)O

>  <INCHIKEY>  (1376) 
CMVZMERLBCRJAH-UHFFFAOYSA-N

$$$$
NMe-4-oxa-Ac6c
     RDKit          2D

 11 11  0  0  0  0  0  0  0  0999 V2000
    1.2281   -1.1676    0.0000 N   0  0  0  0  0  0  0  0  0  0  0  0
    0.7853   -2.6007    0.0000 C   0  0  0  0  0  0  0  0  0  0  0  0
    0.2083   -0.0675    0.0000 C   0  0  0  0  0  0  0  0  0  0  0  0
   -0.6979   -1.2628    0.0000 C   0  0  0  0  0  0  0  0  0  0  0  0
   -2.1862   -1.0757    0.0000 C   0  0  0  0  0  0  0  0  0  0  0  0
   -2.7683    0.3068    0.0000 O   0  0  0  0  0  0  0  0  0  0  0  0
   -1.8620    1.5021    0.0000 C   0  0  0  0  0  0  0  0  0  0  0  0
   -0.3737    1.3149    0.0000 C   0  0  0  0  0  0  0  0  0  0  0  0
    1.4687    0.7457    0.0000 C   0  0  0  0  0  0  0  0  0  0  0  0
    1.3946    2.2439    0.0000 O   0  0  0  0  0  0  0  0  0  0  0  0
    2.8032    0.0608    0.0000 O   0  0  0  0  0  0  0  0  0  0  0  0
  1  2  1  0
  1  3  1  0
  3  4  1  0
  4  5  1  0
  5  6  1  0
  6  7  1  0
  7  8  1  0
  3  9  1  0
  9 10  2  0
  9 11  1  0
  8  3  1  0
M  END
>  <rName>  (1377) 
NMe-4-oxa-Ac6c

>  <PQ_SYMBOL>  (1377) 
NMe-4-oxa-Ac6c

>  <FULL_NAME>  (1377) 
4-(methylamino)tetrahydro-2H-pyran-4-carboxylic acid

>  <IUPAC_CONDENSED>  (1377) 
Me-4-oxa-Ac6c

>  <IUPAC>  (1377) 
4-(methylamino)oxane-4-carboxylic acid

>  <TYPE>  (1377) 
Backbone

>  <CLASS>  (1377) 
alpha

>  <ANALOG>  (1377) 
Ser

>  <MOL_WT>  (1377) 
159.185

>  <LOGP>  (1377) 
-0.16040000000000038

>  <TPSA>  (1377) 
58.56

>  <POPULARITY>  (1377) 
6.8

>  <PROTECTED>  (1377) 
TRUE

>  <SMILES>  (1377) 
N(C)C1(CCOCC1)C(=O)O

>  <INCHIKEY>  (1377) 
XQSFETBRMIRLGH-UHFFFAOYSA-N

$$$$
Npyrid4ylmethyl-G
     RDKit          2D

 12 12  0  0  0  0  0  0  0  0999 V2000
   -1.2194   -0.1693    0.0000 N   0  0  0  0  0  0  0  0  0  0  0  0
   -0.0183   -1.0678    0.0000 C   0  0  0  0  0  0  0  0  0  0  0  0
    1.3604   -0.4769    0.0000 C   0  0  0  0  0  0  0  0  0  0  0  0
    1.5380    1.0126    0.0000 C   0  0  0  0  0  0  0  0  0  0  0  0
    2.9167    1.6035    0.0000 C   0  0  0  0  0  0  0  0  0  0  0  0
    4.1178    0.7050    0.0000 N   0  0  0  0  0  0  0  0  0  0  0  0
    3.9402   -0.7845    0.0000 C   0  0  0  0  0  0  0  0  0  0  0  0
    2.5615   -1.3754    0.0000 C   0  0  0  0  0  0  0  0  0  0  0  0
   -2.5981   -0.7603    0.0000 C   0  0  0  0  0  0  0  0  0  0  0  0
   -3.7992    0.1382    0.0000 C   0  0  0  0  0  0  0  0  0  0  0  0
   -3.6216    1.6277    0.0000 O   0  0  0  0  0  0  0  0  0  0  0  0
   -5.1779   -0.4527    0.0000 O   0  0  0  0  0  0  0  0  0  0  0  0
  1  2  1  0
  2  3  1  0
  3  4  1  0
  4  5  2  0
  5  6  1  0
  6  7  2  0
  7  8  1  0
  1  9  1  0
  9 10  1  0
 10 11  2  0
 10 12  1  0
  8  3  2  0
M  END
>  <rName>  (1378) 
Npyrid4ylmethyl-G

>  <PQ_SYMBOL>  (1378) 
Npyrid4ylmethyl-G

>  <FULL_NAME>  (1378) 
(pyridin-4-ylmethyl)glycine

>  <IUPAC_CONDENSED>  (1378) 
pyrid-4-ylmethyl-Gly

>  <IUPAC>  (1378) 
2-(((pyridin-4-yl)methyl)amino)acetic acid

>  <TYPE>  (1378) 
Backbone

>  <CLASS>  (1378) 
alpha

>  <ANALOG>  (1378) 
Gly

>  <MOL_WT>  (1378) 
166.17999999999998

>  <LOGP>  (1378) 
0.25579999999999975

>  <TPSA>  (1378) 
62.22

>  <POPULARITY>  (1378) 
9.7

>  <PROTECTED>  (1378) 
TRUE

>  <SMILES>  (1378) 
N(Cc1(ccncc1))CC(=O)O

>  <INCHIKEY>  (1378) 
VGXJOVFCVXOPPA-UHFFFAOYSA-N

$$$$
Phe_3Oprop2ynyl
     RDKit          2D

 16 16  0  0  0  0  0  0  0  0999 V2000
   -3.4410    1.2466    0.0000 N   0  0  0  0  0  0  0  0  0  0  0  0
   -3.1131   -0.2171    0.0000 C   0  0  0  0  0  0  0  0  0  0  0  0
   -1.6815   -0.6649    0.0000 C   0  0  0  0  0  0  0  0  0  0  0  0
   -0.5778    0.3509    0.0000 C   0  0  0  0  0  0  0  0  0  0  0  0
   -0.9058    1.8146    0.0000 C   0  0  0  0  0  0  0  0  0  0  0  0
    0.1979    2.8305    0.0000 C   0  0  0  0  0  0  0  0  0  0  0  0
    1.6295    2.3826    0.0000 C   0  0  0  0  0  0  0  0  0  0  0  0
    1.9574    0.9189    0.0000 C   0  0  0  0  0  0  0  0  0  0  0  0
    3.3890    0.4710    0.0000 O   0  0  0  0  0  0  0  0  0  0  0  0
    3.7169   -0.9927    0.0000 C   0  0  0  0  0  0  0  0  0  0  0  0
    5.1485   -1.4405    0.0000 C   0  0  0  0  0  0  0  0  0  0  0  0
    6.5801   -1.8884    0.0000 C   0  0  0  0  0  0  0  0  0  0  0  0
    0.8537   -0.0970    0.0000 C   0  0  0  0  0  0  0  0  0  0  0  0
   -4.2167   -1.2329    0.0000 C   0  0  0  0  0  0  0  0  0  0  0  0
   -3.8888   -2.6966    0.0000 O   0  0  0  0  0  0  0  0  0  0  0  0
   -5.6483   -0.7851    0.0000 O   0  0  0  0  0  0  0  0  0  0  0  0
  2  1  1  1
  2  3  1  0
  3  4  1  0
  4  5  1  0
  5  6  2  0
  6  7  1  0
  7  8  2  0
  8  9  1  0
  9 10  1  0
 10 11  1  0
 11 12  3  0
  8 13  1  0
  2 14  1  0
 14 15  2  0
 14 16  1  0
 13  4  2  0
M  END
>  <rName>  (1379) 
Phe_3Oprop2ynyl

>  <PQ_SYMBOL>  (1379) 
Phe_3Oprop2ynyl

>  <FULL_NAME>  (1379) 
(S)-2-amino-3-(3-(prop-2-yn-1-yloxy)phenyl)propanoic acid

>  <IUPAC_CONDENSED>  (1379) 
Phe(3-Oprop-2-ynyl)

>  <IUPAC>  (1379) 
(2S)-2-amino-3-(3-((prop-2-yn-1-yl)oxy)phenyl)propanoic acid

>  <TYPE>  (1379) 
Backbone

>  <CLASS>  (1379) 
alpha

>  <ANALOG>  (1379) 
Tyr

>  <MOL_WT>  (1379) 
219.23999999999995

>  <LOGP>  (1379) 
0.653

>  <TPSA>  (1379) 
72.55

>  <POPULARITY>  (1379) 
2.7

>  <PROTECTED>  (1379) 
TRUE

>  <SMILES>  (1379) 
N[C@@H](Cc1(cccc(OCC#C)c1))C(=O)O

>  <INCHIKEY>  (1379) 
BENMLSOQBDOBJH-NSHDSACASA-N

$$$$
bAla_3RcBu
     RDKit          2D

 10 10  0  0  0  0  0  0  0  0999 V2000
   -0.3582   -1.8337    0.0000 N   0  0  0  0  0  0  0  0  0  0  0  0
    0.0484   -0.3898    0.0000 C   0  0  0  0  0  0  0  0  0  0  0  0
    1.5020   -0.0199    0.0000 C   0  0  0  0  0  0  0  0  0  0  0  0
    2.2684    1.2695    0.0000 C   0  0  0  0  0  0  0  0  0  0  0  0
    3.5578    0.5032    0.0000 C   0  0  0  0  0  0  0  0  0  0  0  0
    2.7915   -0.7863    0.0000 C   0  0  0  0  0  0  0  0  0  0  0  0
   -0.9988    0.6842    0.0000 C   0  0  0  0  0  0  0  0  0  0  0  0
   -2.4525    0.3143    0.0000 C   0  0  0  0  0  0  0  0  0  0  0  0
   -2.8590   -1.1296    0.0000 O   0  0  0  0  0  0  0  0  0  0  0  0
   -3.4997    1.3882    0.0000 O   0  0  0  0  0  0  0  0  0  0  0  0
  2  1  1  1
  2  3  1  0
  3  4  1  0
  4  5  1  0
  5  6  1  0
  2  7  1  0
  7  8  1  0
  8  9  2  0
  8 10  1  0
  6  3  1  0
M  END
>  <rName>  (1380) 
bAla_3RcBu

>  <PQ_SYMBOL>  (1380) 
bAla_3RcBu

>  <FULL_NAME>  (1380) 
(S)-3-amino-3-cyclobutylpropanoic acid

>  <IUPAC_CONDENSED>  (1380) 
bAla(3R-cBu)

>  <IUPAC>  (1380) 
(3S)-3-amino-3-cyclobutylpropanoic acid

>  <TYPE>  (1380) 
Backbone

>  <CLASS>  (1380) 
beta

>  <ANALOG>  (1380) 
X

>  <MOL_WT>  (1380) 
143.186

>  <LOGP>  (1380) 
0.5884999999999998

>  <TPSA>  (1380) 
63.32000000000001

>  <POPULARITY>  (1380) 
3.7

>  <PROTECTED>  (1380) 
TRUE

>  <SMILES>  (1380) 
N[C@H](C1(CCC1))CC(=O)O

>  <INCHIKEY>  (1380) 
BKTGHCWCUCSXIV-LURJTMIESA-N

$$$$
bAla_3RcPr
     RDKit          2D

  9  9  0  0  0  0  0  0  0  0999 V2000
    0.0470   -1.7903    0.0000 N   0  0  0  0  0  0  0  0  0  0  0  0
    0.4040   -0.3334    0.0000 C   0  0  0  0  0  0  0  0  0  0  0  0
    1.8442    0.0860    0.0000 C   0  0  0  0  0  0  0  0  0  0  0  0
    3.3011   -0.2709    0.0000 C   0  0  0  0  0  0  0  0  0  0  0  0
    2.8817    1.1693    0.0000 C   0  0  0  0  0  0  0  0  0  0  0  0
   -0.6793    0.7042    0.0000 C   0  0  0  0  0  0  0  0  0  0  0  0
   -2.1195    0.2848    0.0000 C   0  0  0  0  0  0  0  0  0  0  0  0
   -2.4764   -1.1721    0.0000 O   0  0  0  0  0  0  0  0  0  0  0  0
   -3.2028    1.3224    0.0000 O   0  0  0  0  0  0  0  0  0  0  0  0
  2  1  1  1
  2  3  1  0
  3  4  1  0
  4  5  1  0
  2  6  1  0
  6  7  1  0
  7  8  2  0
  7  9  1  0
  5  3  1  0
M  END
>  <rName>  (1381) 
bAla_3RcPr

>  <PQ_SYMBOL>  (1381) 
bAla_3RcPr

>  <FULL_NAME>  (1381) 
(S)-3-amino-3-cyclopropylpropanoic acid

>  <IUPAC_CONDENSED>  (1381) 
bAla(3R-cPr)

>  <IUPAC>  (1381) 
(3S)-3-amino-3-cyclopropylpropanoic acid

>  <TYPE>  (1381) 
Backbone

>  <CLASS>  (1381) 
beta

>  <ANALOG>  (1381) 
X

>  <MOL_WT>  (1381) 
129.15900000000002

>  <LOGP>  (1381) 
0.19839999999999985

>  <TPSA>  (1381) 
63.32000000000001

>  <POPULARITY>  (1381) 
7.4

>  <PROTECTED>  (1381) 
TRUE

>  <SMILES>  (1381) 
N[C@H](C1(CC1))CC(=O)O

>  <INCHIKEY>  (1381) 
IHWFMMMLMIDKCB-YFKPBYRVSA-N

$$$$
Abu_cPr
     RDKit          2D

 10 10  0  0  0  0  0  0  0  0999 V2000
   -1.4768   -1.9348    0.0000 N   0  0  0  0  0  0  0  0  0  0  0  0
   -1.3184   -0.4432    0.0000 C   0  0  0  0  0  0  0  0  0  0  0  0
    0.0526    0.1655    0.0000 C   0  0  0  0  0  0  0  0  0  0  0  0
    1.2652   -0.7175    0.0000 C   0  0  0  0  0  0  0  0  0  0  0  0
    2.6361   -0.1088    0.0000 C   0  0  0  0  0  0  0  0  0  0  0  0
    4.1277   -0.2672    0.0000 C   0  0  0  0  0  0  0  0  0  0  0  0
    3.5191    1.1037    0.0000 C   0  0  0  0  0  0  0  0  0  0  0  0
   -2.5310    0.4398    0.0000 C   0  0  0  0  0  0  0  0  0  0  0  0
   -2.3726    1.9314    0.0000 O   0  0  0  0  0  0  0  0  0  0  0  0
   -3.9019   -0.1689    0.0000 O   0  0  0  0  0  0  0  0  0  0  0  0
  2  1  1  6
  2  3  1  0
  3  4  1  0
  4  5  1  0
  5  6  1  0
  6  7  1  0
  2  8  1  0
  8  9  2  0
  8 10  1  0
  7  5  1  0
M  END
>  <rName>  (1382) 
Abu_cPr

>  <PQ_SYMBOL>  (1382) 
Abu_cPr

>  <FULL_NAME>  (1382) 
(S)-2-amino-4-cyclopropylbutanoic acid

>  <IUPAC_CONDENSED>  (1382) 
Abu(cPr)

>  <IUPAC>  (1382) 
(2S)-2-amino-4-cyclopropylbutanoic acid

>  <TYPE>  (1382) 
Backbone

>  <CLASS>  (1382) 
alpha

>  <ANALOG>  (1382) 
Ala

>  <MOL_WT>  (1382) 
143.186

>  <LOGP>  (1382) 
0.5884999999999998

>  <TPSA>  (1382) 
63.32000000000001

>  <POPULARITY>  (1382) 
7.1

>  <PROTECTED>  (1382) 
TRUE

>  <SMILES>  (1382) 
N[C@@H](CCC1(CC1))C(=O)O

>  <INCHIKEY>  (1382) 
XQBROTNHOLWMJR-LURJTMIESA-N

$$$$
4-aza-Ac6c_Bn_2Me
     RDKit          2D

 18 19  0  0  0  0  0  0  0  0999 V2000
   -4.3607    0.9592    0.0000 N   0  0  0  0  0  0  0  0  0  0  0  0
   -3.0117    0.3034    0.0000 C   0  0  0  0  0  0  0  0  0  0  0  0
   -2.6001    1.7459    0.0000 C   0  0  0  0  0  0  0  0  0  0  0  0
   -1.1451    2.1106    0.0000 C   0  0  0  0  0  0  0  0  0  0  0  0
   -0.1017    1.0330    0.0000 N   0  0  0  0  0  0  0  0  0  0  0  0
   -0.5133   -0.4094    0.0000 C   0  0  0  0  0  0  0  0  0  0  0  0
   -1.9683   -0.7742    0.0000 C   0  0  0  0  0  0  0  0  0  0  0  0
    1.3532    1.3978    0.0000 C   0  0  0  0  0  0  0  0  0  0  0  0
    2.3966    0.3201    0.0000 C   0  0  0  0  0  0  0  0  0  0  0  0
    1.9850   -1.1223    0.0000 C   0  0  0  0  0  0  0  0  0  0  0  0
    3.0284   -2.2000    0.0000 C   0  0  0  0  0  0  0  0  0  0  0  0
    4.4834   -1.8352    0.0000 C   0  0  0  0  0  0  0  0  0  0  0  0
    4.8950   -0.3928    0.0000 C   0  0  0  0  0  0  0  0  0  0  0  0
    3.8516    0.6849    0.0000 C   0  0  0  0  0  0  0  0  0  0  0  0
    4.2632    2.1273    0.0000 C   0  0  0  0  0  0  0  0  0  0  0  0
   -3.8918   -0.9112    0.0000 C   0  0  0  0  0  0  0  0  0  0  0  0
   -3.2799   -2.2808    0.0000 O   0  0  0  0  0  0  0  0  0  0  0  0
   -5.3838   -0.7564    0.0000 O   0  0  0  0  0  0  0  0  0  0  0  0
  1  2  1  0
  2  3  1  0
  3  4  1  0
  4  5  1  0
  5  6  1  0
  6  7  1  0
  5  8  1  0
  8  9  1  0
  9 10  2  0
 10 11  1  0
 11 12  2  0
 12 13  1  0
 13 14  2  0
 14 15  1  0
  2 16  1  0
 16 17  2  0
 16 18  1  0
  7  2  1  0
 14  9  1  0
M  END
>  <rName>  (1383) 
4-aza-Ac6c_Bn_2Me

>  <PQ_SYMBOL>  (1383) 
4-aza-Ac6c_Bn_2Me

>  <FULL_NAME>  (1383) 
4-amino-1-(2-methylbenzyl)piperidine-4-carboxylic acid

>  <IUPAC_CONDENSED>  (1383) 
4-aza-Ac6c(Bn(2-Me))

>  <IUPAC>  (1383) 
4-amino-1-((2-methylphenyl)methyl)piperidine-4-carboxylic acid

>  <TYPE>  (1383) 
Backbone

>  <CLASS>  (1383) 
alpha

>  <ANALOG>  (1383) 
X

>  <MOL_WT>  (1383) 
248.32600000000002

>  <LOGP>  (1383) 
1.37292

>  <TPSA>  (1383) 
66.56

>  <POPULARITY>  (1383) 
5.6

>  <PROTECTED>  (1383) 
TRUE

>  <SMILES>  (1383) 
NC1(CCN(CC1)Cc2(ccccc2C))C(=O)O

>  <INCHIKEY>  (1383) 
HPGWIARCDHPCHI-UHFFFAOYSA-N

$$$$
4-aza-Ac6c_Mbzl
     RDKit          2D

 18 19  0  0  0  0  0  0  0  0999 V2000
   -4.5622    0.5962    0.0000 N   0  0  0  0  0  0  0  0  0  0  0  0
   -3.1335    0.1390    0.0000 C   0  0  0  0  0  0  0  0  0  0  0  0
   -2.9314    1.6253    0.0000 C   0  0  0  0  0  0  0  0  0  0  0  0
   -1.5431    2.1934    0.0000 C   0  0  0  0  0  0  0  0  0  0  0  0
   -0.3570    1.2752    0.0000 N   0  0  0  0  0  0  0  0  0  0  0  0
   -0.5592   -0.2111    0.0000 C   0  0  0  0  0  0  0  0  0  0  0  0
   -1.9474   -0.7792    0.0000 C   0  0  0  0  0  0  0  0  0  0  0  0
    1.0313    1.8433    0.0000 C   0  0  0  0  0  0  0  0  0  0  0  0
    2.2174    0.9250    0.0000 C   0  0  0  0  0  0  0  0  0  0  0  0
    2.0152   -0.5613    0.0000 C   0  0  0  0  0  0  0  0  0  0  0  0
    3.2013   -1.4795    0.0000 C   0  0  0  0  0  0  0  0  0  0  0  0
    4.5896   -0.9114    0.0000 C   0  0  0  0  0  0  0  0  0  0  0  0
    5.7757   -1.8297    0.0000 C   0  0  0  0  0  0  0  0  0  0  0  0
    4.7917    0.5749    0.0000 C   0  0  0  0  0  0  0  0  0  0  0  0
    3.6056    1.4931    0.0000 C   0  0  0  0  0  0  0  0  0  0  0  0
   -3.8319   -1.1885    0.0000 C   0  0  0  0  0  0  0  0  0  0  0  0
   -3.0313   -2.4570    0.0000 O   0  0  0  0  0  0  0  0  0  0  0  0
   -5.3307   -1.2475    0.0000 O   0  0  0  0  0  0  0  0  0  0  0  0
  1  2  1  0
  2  3  1  0
  3  4  1  0
  4  5  1  0
  5  6  1  0
  6  7  1  0
  5  8  1  0
  8  9  1  0
  9 10  1  0
 10 11  2  0
 11 12  1  0
 12 13  1  0
 12 14  2  0
 14 15  1  0
  2 16  1  0
 16 17  2  0
 16 18  1  0
  7  2  1  0
 15  9  2  0
M  END
>  <rName>  (1384) 
4-aza-Ac6c_Mbzl

>  <PQ_SYMBOL>  (1384) 
4-aza-Ac6c_Mbzl

>  <FULL_NAME>  (1384) 
4-amino-1-(4-methylbenzyl)piperidine-4-carboxylic acid

>  <IUPAC_CONDENSED>  (1384) 
4-aza-Ac6c(Mbzl)

>  <IUPAC>  (1384) 
4-amino-1-((4-methylphenyl)methyl)piperidine-4-carboxylic acid

>  <TYPE>  (1384) 
Backbone

>  <CLASS>  (1384) 
alpha

>  <ANALOG>  (1384) 
X

>  <MOL_WT>  (1384) 
248.32600000000002

>  <LOGP>  (1384) 
1.37292

>  <TPSA>  (1384) 
66.56

>  <POPULARITY>  (1384) 
6.4

>  <PROTECTED>  (1384) 
TRUE

>  <SMILES>  (1384) 
NC1(CCN(CC1)Cc2(ccc(C)cc2))C(=O)O

>  <INCHIKEY>  (1384) 
CRIHNSOGDQGGAQ-UHFFFAOYSA-N

$$$$
4-aza-Ac6c_Bn_4Cl
     RDKit          2D

 18 19  0  0  0  0  0  0  0  0999 V2000
   -4.5622    0.5962    0.0000 N   0  0  0  0  0  0  0  0  0  0  0  0
   -3.1335    0.1390    0.0000 C   0  0  0  0  0  0  0  0  0  0  0  0
   -2.9314    1.6253    0.0000 C   0  0  0  0  0  0  0  0  0  0  0  0
   -1.5431    2.1934    0.0000 C   0  0  0  0  0  0  0  0  0  0  0  0
   -0.3570    1.2752    0.0000 N   0  0  0  0  0  0  0  0  0  0  0  0
   -0.5592   -0.2111    0.0000 C   0  0  0  0  0  0  0  0  0  0  0  0
   -1.9474   -0.7792    0.0000 C   0  0  0  0  0  0  0  0  0  0  0  0
    1.0313    1.8433    0.0000 C   0  0  0  0  0  0  0  0  0  0  0  0
    2.2174    0.9250    0.0000 C   0  0  0  0  0  0  0  0  0  0  0  0
    2.0152   -0.5613    0.0000 C   0  0  0  0  0  0  0  0  0  0  0  0
    3.2013   -1.4795    0.0000 C   0  0  0  0  0  0  0  0  0  0  0  0
    4.5896   -0.9114    0.0000 C   0  0  0  0  0  0  0  0  0  0  0  0
    5.7757   -1.8297    0.0000 Cl  0  0  0  0  0  0  0  0  0  0  0  0
    4.7917    0.5749    0.0000 C   0  0  0  0  0  0  0  0  0  0  0  0
    3.6056    1.4931    0.0000 C   0  0  0  0  0  0  0  0  0  0  0  0
   -3.8319   -1.1885    0.0000 C   0  0  0  0  0  0  0  0  0  0  0  0
   -3.0313   -2.4570    0.0000 O   0  0  0  0  0  0  0  0  0  0  0  0
   -5.3307   -1.2475    0.0000 O   0  0  0  0  0  0  0  0  0  0  0  0
  1  2  1  0
  2  3  1  0
  3  4  1  0
  4  5  1  0
  5  6  1  0
  6  7  1  0
  5  8  1  0
  8  9  1  0
  9 10  1  0
 10 11  2  0
 11 12  1  0
 12 13  1  0
 12 14  2  0
 14 15  1  0
  2 16  1  0
 16 17  2  0
 16 18  1  0
  7  2  1  0
 15  9  2  0
M  END
>  <rName>  (1385) 
4-aza-Ac6c_Bn_4Cl

>  <PQ_SYMBOL>  (1385) 
4-aza-Ac6c_Bn_4Cl

>  <FULL_NAME>  (1385) 
4-amino-1-(4-chlorobenzyl)piperidine-4-carboxylic acid

>  <IUPAC_CONDENSED>  (1385) 
4-aza-Ac6c(Bn(4-Cl))

>  <IUPAC>  (1385) 
4-amino-1-((4-chlorophenyl)methyl)piperidine-4-carboxylic acid

>  <TYPE>  (1385) 
Backbone

>  <CLASS>  (1385) 
alpha

>  <ANALOG>  (1385) 
X

>  <MOL_WT>  (1385) 
268.744

>  <LOGP>  (1385) 
1.7179

>  <TPSA>  (1385) 
66.56

>  <POPULARITY>  (1385) 
4.6

>  <PROTECTED>  (1385) 
TRUE

>  <SMILES>  (1385) 
NC1(CCN(CC1)Cc2(ccc(Cl)cc2))C(=O)O

>  <INCHIKEY>  (1385) 
ABDIXVFLGWCHDW-UHFFFAOYSA-N

$$$$
4-aza-Ac6c_Bn_4OMe
     RDKit          2D

 19 20  0  0  0  0  0  0  0  0999 V2000
   -4.9047    0.3373    0.0000 N   0  0  0  0  0  0  0  0  0  0  0  0
   -3.4412    0.0086    0.0000 C   0  0  0  0  0  0  0  0  0  0  0  0
   -3.3716    1.5070    0.0000 C   0  0  0  0  0  0  0  0  0  0  0  0
   -2.0391    2.1958    0.0000 C   0  0  0  0  0  0  0  0  0  0  0  0
   -0.7763    1.3864    0.0000 N   0  0  0  0  0  0  0  0  0  0  0  0
   -0.8459   -0.1120    0.0000 C   0  0  0  0  0  0  0  0  0  0  0  0
   -2.1784   -0.8009    0.0000 C   0  0  0  0  0  0  0  0  0  0  0  0
    0.5562    2.0752    0.0000 C   0  0  0  0  0  0  0  0  0  0  0  0
    1.8190    1.2658    0.0000 C   0  0  0  0  0  0  0  0  0  0  0  0
    1.7494   -0.2326    0.0000 C   0  0  0  0  0  0  0  0  0  0  0  0
    3.0122   -1.0421    0.0000 C   0  0  0  0  0  0  0  0  0  0  0  0
    4.3446   -0.3532    0.0000 C   0  0  0  0  0  0  0  0  0  0  0  0
    5.6075   -1.1627    0.0000 O   0  0  0  0  0  0  0  0  0  0  0  0
    5.5378   -2.6611    0.0000 C   0  0  0  0  0  0  0  0  0  0  0  0
    4.4143    1.1452    0.0000 C   0  0  0  0  0  0  0  0  0  0  0  0
    3.1514    1.9546    0.0000 C   0  0  0  0  0  0  0  0  0  0  0  0
   -4.0191   -1.3756    0.0000 C   0  0  0  0  0  0  0  0  0  0  0  0
   -3.1093   -2.5682    0.0000 O   0  0  0  0  0  0  0  0  0  0  0  0
   -5.5068   -1.5673    0.0000 O   0  0  0  0  0  0  0  0  0  0  0  0
  1  2  1  0
  2  3  1  0
  3  4  1  0
  4  5  1  0
  5  6  1  0
  6  7  1  0
  5  8  1  0
  8  9  1  0
  9 10  1  0
 10 11  2  0
 11 12  1  0
 12 13  1  0
 13 14  1  0
 12 15  2  0
 15 16  1  0
  2 17  1  0
 17 18  2  0
 17 19  1  0
  7  2  1  0
 16  9  2  0
M  END
>  <rName>  (1386) 
4-aza-Ac6c_Bn_4OMe

>  <PQ_SYMBOL>  (1386) 
4-aza-Ac6c_Bn_4OMe

>  <FULL_NAME>  (1386) 
4-amino-1-(4-methoxybenzyl)piperidine-4-carboxylic acid

>  <IUPAC_CONDENSED>  (1386) 
4-aza-Ac6c(Bn(4-OMe))

>  <IUPAC>  (1386) 
4-amino-1-((4-methoxyphenyl)methyl)piperidine-4-carboxylic acid

>  <TYPE>  (1386) 
Backbone

>  <CLASS>  (1386) 
alpha

>  <ANALOG>  (1386) 
X

>  <MOL_WT>  (1386) 
264.325

>  <LOGP>  (1386) 
1.0730999999999995

>  <TPSA>  (1386) 
75.78999999999999

>  <POPULARITY>  (1386) 
7.7

>  <PROTECTED>  (1386) 
TRUE

>  <SMILES>  (1386) 
NC1(CCN(CC1)Cc2(ccc(OC)cc2))C(=O)O

>  <INCHIKEY>  (1386) 
JEYKZZICXPKITI-UHFFFAOYSA-N

$$$$
D-Gly_tetrahydropyran4yl
     RDKit          2D

 11 11  0  0  0  0  0  0  0  0999 V2000
   -1.6031   -2.0851    0.0000 N   0  0  0  0  0  0  0  0  0  0  0  0
   -1.1770   -0.6469    0.0000 C   0  0  0  0  0  0  0  0  0  0  0  0
    0.2816   -0.2968    0.0000 C   0  0  0  0  0  0  0  0  0  0  0  0
    0.7077    1.1415    0.0000 C   0  0  0  0  0  0  0  0  0  0  0  0
    2.1662    1.4916    0.0000 C   0  0  0  0  0  0  0  0  0  0  0  0
    3.1987    0.4035    0.0000 O   0  0  0  0  0  0  0  0  0  0  0  0
    2.7726   -1.0347    0.0000 C   0  0  0  0  0  0  0  0  0  0  0  0
    1.3141   -1.3849    0.0000 C   0  0  0  0  0  0  0  0  0  0  0  0
   -2.2095    0.4412    0.0000 C   0  0  0  0  0  0  0  0  0  0  0  0
   -1.7834    1.8794    0.0000 O   0  0  0  0  0  0  0  0  0  0  0  0
   -3.6680    0.0911    0.0000 O   0  0  0  0  0  0  0  0  0  0  0  0
  2  1  1  1
  2  3  1  0
  3  4  1  0
  4  5  1  0
  5  6  1  0
  6  7  1  0
  7  8  1  0
  2  9  1  0
  9 10  2  0
  9 11  1  0
  8  3  1  0
M  END
>  <rName>  (1387) 
D-Gly_tetrahydropyran4yl

>  <PQ_SYMBOL>  (1387) 
D-Gly_tetrahydropyran4yl

>  <FULL_NAME>  (1387) 
(R)-2-amino-2-(tetrahydro-2H-pyran-4-yl)acetic acid

>  <IUPAC_CONDENSED>  (1387) 
D-Gly(tetrahydropyran-4-yl)

>  <IUPAC>  (1387) 
(2R)-2-amino-2-(oxan-4-yl)acetic acid

>  <TYPE>  (1387) 
Backbone

>  <CLASS>  (1387) 
alpha

>  <ANALOG>  (1387) 
X

>  <MOL_WT>  (1387) 
159.185

>  <LOGP>  (1387) 
-0.17510000000000053

>  <TPSA>  (1387) 
72.55

>  <POPULARITY>  (1387) 
5.4

>  <PROTECTED>  (1387) 
TRUE

>  <SMILES>  (1387) 
N[C@H](C1(CCOCC1))C(=O)O

>  <INCHIKEY>  (1387) 
XLZJPHKIECMDPG-ZCFIWIBFSA-N

$$$$
b2-4-oxa-Ac6c
     RDKit          2D

 11 11  0  0  0  0  0  0  0  0999 V2000
   -0.7853   -2.6007    0.0000 N   0  0  0  0  0  0  0  0  0  0  0  0
   -1.2281   -1.1676    0.0000 C   0  0  0  0  0  0  0  0  0  0  0  0
   -0.2083   -0.0675    0.0000 C   0  0  0  0  0  0  0  0  0  0  0  0
    0.3737    1.3149    0.0000 C   0  0  0  0  0  0  0  0  0  0  0  0
    1.8620    1.5021    0.0000 C   0  0  0  0  0  0  0  0  0  0  0  0
    2.7683    0.3068    0.0000 O   0  0  0  0  0  0  0  0  0  0  0  0
    2.1862   -1.0757    0.0000 C   0  0  0  0  0  0  0  0  0  0  0  0
    0.6979   -1.2628    0.0000 C   0  0  0  0  0  0  0  0  0  0  0  0
   -1.4687    0.7457    0.0000 C   0  0  0  0  0  0  0  0  0  0  0  0
   -2.8032    0.0608    0.0000 O   0  0  0  0  0  0  0  0  0  0  0  0
   -1.3946    2.2439    0.0000 O   0  0  0  0  0  0  0  0  0  0  0  0
  1  2  1  0
  2  3  1  0
  3  4  1  0
  4  5  1  0
  5  6  1  0
  6  7  1  0
  7  8  1  0
  3  9  1  0
  9 10  2  0
  9 11  1  0
  8  3  1  0
M  END
>  <rName>  (1388) 
b2-4-oxa-Ac6c

>  <PQ_SYMBOL>  (1388) 
b2-4-oxa-Ac6c

>  <FULL_NAME>  (1388) 
4-(aminomethyl)tetrahydro-2H-pyran-4-carboxylic acid

>  <IUPAC_CONDENSED>  (1388) 
b2-4-oxa-Ac6c

>  <IUPAC>  (1388) 
4-(aminomethyl)oxane-4-carboxylic acid

>  <TYPE>  (1388) 
Backbone

>  <CLASS>  (1388) 
beta

>  <ANALOG>  (1388) 
Ser

>  <MOL_WT>  (1388) 
159.185

>  <LOGP>  (1388) 
-0.17350000000000027

>  <TPSA>  (1388) 
72.55

>  <POPULARITY>  (1388) 
8.3

>  <PROTECTED>  (1388) 
TRUE

>  <SMILES>  (1388) 
NCC1(CCOCC1)C(=O)O

>  <INCHIKEY>  (1388) 
MOQXTRBNZFLFOF-UHFFFAOYSA-N

$$$$
bAla_2SOH
     RDKit          2D

  7  6  0  0  0  0  0  0  0  0999 V2000
    2.7865    0.2956    0.0000 N   0  0  0  0  0  0  0  0  0  0  0  0
    1.3548    0.7431    0.0000 C   0  0  0  0  0  0  0  0  0  0  0  0
    0.2514   -0.2730    0.0000 C   0  0  0  0  0  0  0  0  0  0  0  0
    0.5797   -1.7367    0.0000 O   0  0  0  0  0  0  0  0  0  0  0  0
   -1.1803    0.1745    0.0000 C   0  0  0  0  0  0  0  0  0  0  0  0
   -1.5086    1.6381    0.0000 O   0  0  0  0  0  0  0  0  0  0  0  0
   -2.2837   -0.8417    0.0000 O   0  0  0  0  0  0  0  0  0  0  0  0
  1  2  1  0
  2  3  1  0
  3  4  1  6
  3  5  1  0
  5  6  2  0
  5  7  1  0
M  END
>  <rName>  (1389) 
bAla_2SOH

>  <PQ_SYMBOL>  (1389) 
bAla_2SOH

>  <FULL_NAME>  (1389) 
(S)-3-amino-2-hydroxypropanoic acid

>  <IUPAC_CONDENSED>  (1389) 
bAla(2S-OH)

>  <IUPAC>  (1389) 
(2S)-3-amino-2-hydroxypropanoic acid

>  <TYPE>  (1389) 
Backbone

>  <CLASS>  (1389) 
beta

>  <ANALOG>  (1389) 
X

>  <MOL_WT>  (1389) 
105.09299999999999

>  <LOGP>  (1389) 
-1.6093999999999997

>  <TPSA>  (1389) 
83.55

>  <POPULARITY>  (1389) 
12.8

>  <PROTECTED>  (1389) 
TRUE

>  <SMILES>  (1389) 
NC[C@H](O)C(=O)O

>  <INCHIKEY>  (1389) 
BMYNFMYTOJXKLE-REOHCLBHSA-N

$$$$
D-hPhe_4Cl
     RDKit          2D

 14 14  0  0  0  0  0  0  0  0999 V2000
   -3.1731   -1.8740    0.0000 N   0  0  0  0  0  0  0  0  0  0  0  0
   -2.8476   -0.4097    0.0000 C   0  0  0  0  0  0  0  0  0  0  0  0
   -1.4168    0.0405    0.0000 C   0  0  0  0  0  0  0  0  0  0  0  0
   -0.3114   -0.9735    0.0000 C   0  0  0  0  0  0  0  0  0  0  0  0
    1.1194   -0.5232    0.0000 C   0  0  0  0  0  0  0  0  0  0  0  0
    1.4449    0.9411    0.0000 C   0  0  0  0  0  0  0  0  0  0  0  0
    2.8757    1.3913    0.0000 C   0  0  0  0  0  0  0  0  0  0  0  0
    3.9810    0.3773    0.0000 C   0  0  0  0  0  0  0  0  0  0  0  0
    5.4119    0.8276    0.0000 Cl  0  0  0  0  0  0  0  0  0  0  0  0
    3.6556   -1.0870    0.0000 C   0  0  0  0  0  0  0  0  0  0  0  0
    2.2247   -1.5372    0.0000 C   0  0  0  0  0  0  0  0  0  0  0  0
   -3.9530    0.6043    0.0000 C   0  0  0  0  0  0  0  0  0  0  0  0
   -3.6275    2.0685    0.0000 O   0  0  0  0  0  0  0  0  0  0  0  0
   -5.3838    0.1540    0.0000 O   0  0  0  0  0  0  0  0  0  0  0  0
  2  1  1  1
  2  3  1  0
  3  4  1  0
  4  5  1  0
  5  6  1  0
  6  7  2  0
  7  8  1  0
  8  9  1  0
  8 10  2  0
 10 11  1  0
  2 12  1  0
 12 13  2  0
 12 14  1  0
 11  5  2  0
M  END
>  <rName>  (1390) 
D-hPhe_4Cl

>  <PQ_SYMBOL>  (1390) 
D-hPhe_4Cl

>  <FULL_NAME>  (1390) 
(R)-2-amino-4-(4-chlorophenyl)butanoic acid

>  <IUPAC_CONDENSED>  (1390) 
D-hPhe(4-Cl)

>  <IUPAC>  (1390) 
(2R)-2-amino-4-(4-chlorophenyl)butanoic acid

>  <TYPE>  (1390) 
Backbone

>  <CLASS>  (1390) 
alpha

>  <ANALOG>  (1390) 
Phe

>  <MOL_WT>  (1390) 
213.664

>  <LOGP>  (1390) 
1.6844999999999999

>  <TPSA>  (1390) 
63.32000000000001

>  <POPULARITY>  (1390) 
9.2

>  <PROTECTED>  (1390) 
TRUE

>  <SMILES>  (1390) 
N[C@H](CCc1(ccc(Cl)cc1))C(=O)O

>  <INCHIKEY>  (1390) 
AQUBLNVPEAFNGD-SECBINFHSA-N

$$$$
D-hPhe_3CF3
     RDKit          2D

 17 17  0  0  0  0  0  0  0  0999 V2000
   -3.6728   -2.1092    0.0000 N   0  0  0  0  0  0  0  0  0  0  0  0
   -3.6693   -0.6092    0.0000 C   0  0  0  0  0  0  0  0  0  0  0  0
   -2.3685    0.1378    0.0000 C   0  0  0  0  0  0  0  0  0  0  0  0
   -1.0712   -0.6152    0.0000 C   0  0  0  0  0  0  0  0  0  0  0  0
    0.2295    0.1318    0.0000 C   0  0  0  0  0  0  0  0  0  0  0  0
    0.2330    1.6318    0.0000 C   0  0  0  0  0  0  0  0  0  0  0  0
    1.5338    2.3788    0.0000 C   0  0  0  0  0  0  0  0  0  0  0  0
    2.8311    1.6258    0.0000 C   0  0  0  0  0  0  0  0  0  0  0  0
    2.8276    0.1258    0.0000 C   0  0  0  0  0  0  0  0  0  0  0  0
    1.5268   -0.6212    0.0000 C   0  0  0  0  0  0  0  0  0  0  0  0
    4.1249   -0.6272    0.0000 C   0  0  0  0  0  0  0  0  0  0  0  0
    5.4222   -1.3802    0.0000 F   0  0  0  0  0  0  0  0  0  0  0  0
    3.3719   -1.9245    0.0000 F   0  0  0  0  0  0  0  0  0  0  0  0
    4.8779    0.6701    0.0000 F   0  0  0  0  0  0  0  0  0  0  0  0
   -4.9666    0.1438    0.0000 C   0  0  0  0  0  0  0  0  0  0  0  0
   -4.9631    1.6438    0.0000 O   0  0  0  0  0  0  0  0  0  0  0  0
   -6.2674   -0.6032    0.0000 O   0  0  0  0  0  0  0  0  0  0  0  0
  2  1  1  1
  2  3  1  0
  3  4  1  0
  4  5  1  0
  5  6  1  0
  6  7  2  0
  7  8  1  0
  8  9  2  0
  9 10  1  0
  9 11  1  0
 11 12  1  0
 11 13  1  0
 11 14  1  0
  2 15  1  0
 15 16  2  0
 15 17  1  0
 10  5  2  0
M  END
>  <rName>  (1391) 
D-hPhe_3CF3

>  <PQ_SYMBOL>  (1391) 
D-hPhe_3CF3

>  <FULL_NAME>  (1391) 
(R)-2-amino-4-(3-(trifluoromethyl)phenyl)butanoic acid

>  <IUPAC_CONDENSED>  (1391) 
D-hPhe(3-CF3)

>  <IUPAC>  (1391) 
(2R)-2-amino-4-(3-(trifluoromethyl)phenyl)butanoic acid

>  <TYPE>  (1391) 
Backbone

>  <CLASS>  (1391) 
alpha

>  <ANALOG>  (1391) 
Phe

>  <MOL_WT>  (1391) 
247.21599999999995

>  <LOGP>  (1391) 
2.0499

>  <TPSA>  (1391) 
63.32000000000001

>  <POPULARITY>  (1391) 
4.6

>  <PROTECTED>  (1391) 
TRUE

>  <SMILES>  (1391) 
N[C@H](CCc1(cccc(c1)C(F)(F)F))C(=O)O

>  <INCHIKEY>  (1391) 
YHEKYBSDNWZYJS-SECBINFHSA-N

$$$$
D-hPhe_24diCl
     RDKit          2D

 15 15  0  0  0  0  0  0  0  0999 V2000
   -3.2293   -1.8059    0.0000 N   0  0  0  0  0  0  0  0  0  0  0  0
   -2.9633   -0.3297    0.0000 C   0  0  0  0  0  0  0  0  0  0  0  0
   -1.5519    0.1780    0.0000 C   0  0  0  0  0  0  0  0  0  0  0  0
   -0.4064   -0.7904    0.0000 C   0  0  0  0  0  0  0  0  0  0  0  0
    1.0050   -0.2827    0.0000 C   0  0  0  0  0  0  0  0  0  0  0  0
    1.2710    1.1935    0.0000 C   0  0  0  0  0  0  0  0  0  0  0  0
    2.6825    1.7012    0.0000 C   0  0  0  0  0  0  0  0  0  0  0  0
    3.8279    0.7327    0.0000 C   0  0  0  0  0  0  0  0  0  0  0  0
    5.2394    1.2405    0.0000 Cl  0  0  0  0  0  0  0  0  0  0  0  0
    3.5619   -0.7435    0.0000 C   0  0  0  0  0  0  0  0  0  0  0  0
    2.1505   -1.2512    0.0000 C   0  0  0  0  0  0  0  0  0  0  0  0
    1.8844   -2.7274    0.0000 Cl  0  0  0  0  0  0  0  0  0  0  0  0
   -4.1088    0.6388    0.0000 C   0  0  0  0  0  0  0  0  0  0  0  0
   -3.8427    2.1150    0.0000 O   0  0  0  0  0  0  0  0  0  0  0  0
   -5.5202    0.1311    0.0000 O   0  0  0  0  0  0  0  0  0  0  0  0
  2  1  1  1
  2  3  1  0
  3  4  1  0
  4  5  1  0
  5  6  1  0
  6  7  2  0
  7  8  1  0
  8  9  1  0
  8 10  2  0
 10 11  1  0
 11 12  1  0
  2 13  1  0
 13 14  2  0
 13 15  1  0
 11  5  2  0
M  END
>  <rName>  (1392) 
D-hPhe_24diCl

>  <PQ_SYMBOL>  (1392) 
D-hPhe_24diCl

>  <FULL_NAME>  (1392) 
(R)-2-amino-4-(2,4-dichlorophenyl)butanoic acid

>  <IUPAC_CONDENSED>  (1392) 
D-hPhe(2,4-diCl)

>  <IUPAC>  (1392) 
(2R)-2-amino-4-(2,4-dichlorophenyl)butanoic acid

>  <TYPE>  (1392) 
Backbone

>  <CLASS>  (1392) 
alpha

>  <ANALOG>  (1392) 
Phe

>  <MOL_WT>  (1392) 
248.10899999999998

>  <LOGP>  (1392) 
2.3379

>  <TPSA>  (1392) 
63.32000000000001

>  <POPULARITY>  (1392) 
5.9

>  <PROTECTED>  (1392) 
TRUE

>  <SMILES>  (1392) 
N[C@H](CCc1(ccc(Cl)cc1Cl))C(=O)O

>  <INCHIKEY>  (1392) 
VSJIELYJPAYOJA-SECBINFHSA-N

$$$$
D-hPhe_34diCl
     RDKit          2D

 15 15  0  0  0  0  0  0  0  0999 V2000
   -3.3791   -1.9420    0.0000 N   0  0  0  0  0  0  0  0  0  0  0  0
   -3.1429   -0.4608    0.0000 C   0  0  0  0  0  0  0  0  0  0  0  0
   -1.7419    0.0753    0.0000 C   0  0  0  0  0  0  0  0  0  0  0  0
   -0.5772   -0.8699    0.0000 C   0  0  0  0  0  0  0  0  0  0  0  0
    0.8237   -0.3339    0.0000 C   0  0  0  0  0  0  0  0  0  0  0  0
    1.0600    1.1474    0.0000 C   0  0  0  0  0  0  0  0  0  0  0  0
    2.4609    1.6834    0.0000 C   0  0  0  0  0  0  0  0  0  0  0  0
    3.6256    0.7382    0.0000 C   0  0  0  0  0  0  0  0  0  0  0  0
    5.0266    1.2742    0.0000 Cl  0  0  0  0  0  0  0  0  0  0  0  0
    3.3894   -0.7431    0.0000 C   0  0  0  0  0  0  0  0  0  0  0  0
    4.5541   -1.6883    0.0000 Cl  0  0  0  0  0  0  0  0  0  0  0  0
    1.9884   -1.2791    0.0000 C   0  0  0  0  0  0  0  0  0  0  0  0
   -4.3076    0.4845    0.0000 C   0  0  0  0  0  0  0  0  0  0  0  0
   -4.0713    1.9658    0.0000 O   0  0  0  0  0  0  0  0  0  0  0  0
   -5.7085   -0.0516    0.0000 O   0  0  0  0  0  0  0  0  0  0  0  0
  2  1  1  1
  2  3  1  0
  3  4  1  0
  4  5  1  0
  5  6  1  0
  6  7  2  0
  7  8  1  0
  8  9  1  0
  8 10  2  0
 10 11  1  0
 10 12  1  0
  2 13  1  0
 13 14  2  0
 13 15  1  0
 12  5  2  0
M  END
>  <rName>  (1393) 
D-hPhe_34diCl

>  <PQ_SYMBOL>  (1393) 
D-hPhe_34diCl

>  <FULL_NAME>  (1393) 
(R)-2-amino-4-(3,4-dichlorophenyl)butanoic acid

>  <IUPAC_CONDENSED>  (1393) 
D-hPhe(3,4-diCl)

>  <IUPAC>  (1393) 
(2R)-2-amino-4-(3,4-dichlorophenyl)butanoic acid

>  <TYPE>  (1393) 
Backbone

>  <CLASS>  (1393) 
alpha

>  <ANALOG>  (1393) 
Phe

>  <MOL_WT>  (1393) 
248.10899999999998

>  <LOGP>  (1393) 
2.3379

>  <TPSA>  (1393) 
63.32000000000001

>  <POPULARITY>  (1393) 
4.3

>  <PROTECTED>  (1393) 
TRUE

>  <SMILES>  (1393) 
N[C@H](CCc1(ccc(Cl)c(Cl)c1))C(=O)O

>  <INCHIKEY>  (1393) 
PHCCQGLRCCLUBD-SECBINFHSA-N

$$$$
Chg_OH
     RDKit          2D

 12 12  0  0  0  0  0  0  0  0999 V2000
   -2.1139   -2.0272    0.0000 N   0  0  0  0  0  0  0  0  0  0  0  0
   -1.6041   -0.6165    0.0000 C   0  0  0  0  0  0  0  0  0  0  0  0
   -0.1275   -0.3527    0.0000 C   0  0  0  0  0  0  0  0  0  0  0  0
    0.3824    1.0580    0.0000 C   0  0  0  0  0  0  0  0  0  0  0  0
    1.8590    1.3219    0.0000 C   0  0  0  0  0  0  0  0  0  0  0  0
    2.8258    0.1750    0.0000 C   0  0  0  0  0  0  0  0  0  0  0  0
    4.3024    0.4388    0.0000 O   0  0  0  0  0  0  0  0  0  0  0  0
    2.3159   -1.2357    0.0000 C   0  0  0  0  0  0  0  0  0  0  0  0
    0.8393   -1.4995    0.0000 C   0  0  0  0  0  0  0  0  0  0  0  0
   -2.5709    0.5304    0.0000 C   0  0  0  0  0  0  0  0  0  0  0  0
   -2.0610    1.9411    0.0000 O   0  0  0  0  0  0  0  0  0  0  0  0
   -4.0475    0.2665    0.0000 O   0  0  0  0  0  0  0  0  0  0  0  0
  2  1  1  6
  2  3  1  0
  3  4  1  0
  4  5  1  0
  5  6  1  0
  6  7  1  0
  6  8  1  0
  8  9  1  0
  2 10  1  0
 10 11  2  0
 10 12  1  0
  9  3  1  0
M  END
>  <rName>  (1394) 
Chg_OH

>  <PQ_SYMBOL>  (1394) 
Chg_OH

>  <FULL_NAME>  (1394) 
(S)-2-amino-2-(4-hydroxycyclohexyl)acetic acid

>  <IUPAC_CONDENSED>  (1394) 
Chg(OH)

>  <IUPAC>  (1394) 
(2S)-2-amino-2-(4-hydroxycyclohexyl)acetic acid

>  <TYPE>  (1394) 
Backbone

>  <CLASS>  (1394) 
alpha

>  <ANALOG>  (1394) 
X

>  <MOL_WT>  (1394) 
173.212

>  <LOGP>  (1394) 
-0.05060000000000048

>  <TPSA>  (1394) 
83.55

>  <POPULARITY>  (1394) 
6.5

>  <PROTECTED>  (1394) 
TRUE

>  <SMILES>  (1394) 
N[C@@H](C1(CCC(O)CC1))C(=O)O

>  <INCHIKEY>  (1394) 
IMYYCZADDHYKLF-AHXFUIDQSA-N

$$$$
b-4-aza-Ac6c
     RDKit          2D

 11 11  0  0  0  0  0  0  0  0999 V2000
    0.8408   -1.1159    0.0000 N   0  0  0  0  0  0  0  0  0  0  0  0
   -0.2224   -0.0578    0.0000 C   0  0  0  0  0  0  0  0  0  0  0  0
   -1.0798   -1.2885    0.0000 C   0  0  0  0  0  0  0  0  0  0  0  0
   -2.5744   -1.1613    0.0000 C   0  0  0  0  0  0  0  0  0  0  0  0
   -3.2116    0.1967    0.0000 N   0  0  0  0  0  0  0  0  0  0  0  0
   -2.3541    1.4274    0.0000 C   0  0  0  0  0  0  0  0  0  0  0  0
   -0.8595    1.3002    0.0000 C   0  0  0  0  0  0  0  0  0  0  0  0
    1.0043    0.8055    0.0000 C   0  0  0  0  0  0  0  0  0  0  0  0
    2.3653    0.1748    0.0000 C   0  0  0  0  0  0  0  0  0  0  0  0
    2.4995   -1.3192    0.0000 O   0  0  0  0  0  0  0  0  0  0  0  0
    3.5920    1.0381    0.0000 O   0  0  0  0  0  0  0  0  0  0  0  0
  1  2  1  0
  2  3  1  0
  3  4  1  0
  4  5  1  0
  5  6  1  0
  6  7  1  0
  2  8  1  0
  8  9  1  0
  9 10  2  0
  9 11  1  0
  7  2  1  0
M  END
>  <rName>  (1395) 
b-4-aza-Ac6c

>  <PQ_SYMBOL>  (1395) 
b-4-aza-Ac6c

>  <FULL_NAME>  (1395) 
2-(4-aminopiperidin-4-yl)acetic acid

>  <IUPAC_CONDENSED>  (1395) 
b-4-aza-Ac6c

>  <IUPAC>  (1395) 
2-(4-aminopiperidin-4-yl)acetic acid

>  <TYPE>  (1395) 
Backbone

>  <CLASS>  (1395) 
beta

>  <ANALOG>  (1395) 
X

>  <MOL_WT>  (1395) 
158.201

>  <LOGP>  (1395) 
-0.45800000000000046

>  <TPSA>  (1395) 
75.35

>  <POPULARITY>  (1395) 
7.7

>  <PROTECTED>  (1395) 
TRUE

>  <SMILES>  (1395) 
NC1(CCNCC1)CC(=O)O

>  <INCHIKEY>  (1395) 
RYPZAKWOLNJEHN-UHFFFAOYSA-N

$$$$
aHyp_Ph
     RDKit          2D

 15 16  0  0  0  0  0  0  0  0999 V2000
   -1.9780    1.3585    0.0000 N   0  0  0  0  0  0  0  0  0  0  0  0
   -2.7771    0.0891    0.0000 C   0  0  0  0  0  0  0  0  0  0  0  0
   -1.8168   -1.0632    0.0000 C   0  0  0  0  0  0  0  0  0  0  0  0
   -0.4242   -0.5059    0.0000 C   0  0  0  0  0  0  0  0  0  0  0  0
    0.8452   -1.3051    0.0000 O   0  0  0  0  0  0  0  0  0  0  0  0
    2.1720   -0.6053    0.0000 C   0  0  0  0  0  0  0  0  0  0  0  0
    3.4414   -1.4044    0.0000 C   0  0  0  0  0  0  0  0  0  0  0  0
    4.7682   -0.7047    0.0000 C   0  0  0  0  0  0  0  0  0  0  0  0
    4.8256    0.7942    0.0000 C   0  0  0  0  0  0  0  0  0  0  0  0
    3.5562    1.5934    0.0000 C   0  0  0  0  0  0  0  0  0  0  0  0
    2.2294    0.8936    0.0000 C   0  0  0  0  0  0  0  0  0  0  0  0
   -0.5238    0.9908    0.0000 C   0  0  0  0  0  0  0  0  0  0  0  0
   -4.2738   -0.0105    0.0000 C   0  0  0  0  0  0  0  0  0  0  0  0
   -4.9359   -1.3565    0.0000 O   0  0  0  0  0  0  0  0  0  0  0  0
   -5.1084    1.2359    0.0000 O   0  0  0  0  0  0  0  0  0  0  0  0
  1  2  1  0
  2  3  1  0
  3  4  1  0
  4  5  1  1
  5  6  1  0
  6  7  2  0
  7  8  1  0
  8  9  2  0
  9 10  1  0
 10 11  2  0
  4 12  1  0
  2 13  1  1
 13 14  2  0
 13 15  1  0
 11  6  1  0
 12  1  1  0
M  END
>  <rName>  (1396) 
aHyp_Ph

>  <PQ_SYMBOL>  (1396) 
aHyp_Ph

>  <FULL_NAME>  (1396) 
(2S,4S)-4-phenoxypyrrolidine-2-carboxylic acid

>  <IUPAC_CONDENSED>  (1396) 
aHyp(Ph)

>  <IUPAC>  (1396) 
(2S,4S)-4-phenoxypyrrolidine-2-carboxylic acid

>  <TYPE>  (1396) 
Backbone

>  <CLASS>  (1396) 
alpha

>  <ANALOG>  (1396) 
Pro

>  <MOL_WT>  (1396) 
207.22899999999998

>  <LOGP>  (1396) 
0.8805000000000001

>  <TPSA>  (1396) 
58.56

>  <POPULARITY>  (1396) 
9

>  <PROTECTED>  (1396) 
TRUE

>  <SMILES>  (1396) 
N2[C@@H](C[C@H](Oc1(ccccc1))C2)C(=O)O

>  <INCHIKEY>  (1396) 
RWSHAZYNUOFZMI-UWVGGRQHSA-N

$$$$
D-hPhe_4F
     RDKit          2D

 14 14  0  0  0  0  0  0  0  0999 V2000
   -3.1731   -1.8740    0.0000 N   0  0  0  0  0  0  0  0  0  0  0  0
   -2.8476   -0.4097    0.0000 C   0  0  0  0  0  0  0  0  0  0  0  0
   -1.4168    0.0405    0.0000 C   0  0  0  0  0  0  0  0  0  0  0  0
   -0.3114   -0.9735    0.0000 C   0  0  0  0  0  0  0  0  0  0  0  0
    1.1194   -0.5232    0.0000 C   0  0  0  0  0  0  0  0  0  0  0  0
    1.4449    0.9411    0.0000 C   0  0  0  0  0  0  0  0  0  0  0  0
    2.8757    1.3913    0.0000 C   0  0  0  0  0  0  0  0  0  0  0  0
    3.9810    0.3773    0.0000 C   0  0  0  0  0  0  0  0  0  0  0  0
    5.4119    0.8276    0.0000 F   0  0  0  0  0  0  0  0  0  0  0  0
    3.6556   -1.0870    0.0000 C   0  0  0  0  0  0  0  0  0  0  0  0
    2.2247   -1.5372    0.0000 C   0  0  0  0  0  0  0  0  0  0  0  0
   -3.9530    0.6043    0.0000 C   0  0  0  0  0  0  0  0  0  0  0  0
   -3.6275    2.0685    0.0000 O   0  0  0  0  0  0  0  0  0  0  0  0
   -5.3838    0.1540    0.0000 O   0  0  0  0  0  0  0  0  0  0  0  0
  2  1  1  1
  2  3  1  0
  3  4  1  0
  4  5  1  0
  5  6  1  0
  6  7  2  0
  7  8  1  0
  8  9  1  0
  8 10  2  0
 10 11  1  0
  2 12  1  0
 12 13  2  0
 12 14  1  0
 11  5  2  0
M  END
>  <rName>  (1397) 
D-hPhe_4F

>  <PQ_SYMBOL>  (1397) 
D-hPhe_4F

>  <FULL_NAME>  (1397) 
(R)-2-amino-4-(4-fluorophenyl)butanoic acid

>  <IUPAC_CONDENSED>  (1397) 
D-hPhe(4-F)

>  <IUPAC>  (1397) 
(2R)-2-amino-4-(4-fluorophenyl)butanoic acid

>  <TYPE>  (1397) 
Backbone

>  <CLASS>  (1397) 
alpha

>  <ANALOG>  (1397) 
Phe

>  <MOL_WT>  (1397) 
197.209

>  <LOGP>  (1397) 
1.1702

>  <TPSA>  (1397) 
63.32000000000001

>  <POPULARITY>  (1397) 
6

>  <PROTECTED>  (1397) 
TRUE

>  <SMILES>  (1397) 
N[C@H](CCc1(ccc(F)cc1))C(=O)O

>  <INCHIKEY>  (1397) 
WMMMRQAUOPVWML-SECBINFHSA-N

$$$$
hPhe_4F
     RDKit          2D

 14 14  0  0  0  0  0  0  0  0999 V2000
   -3.1731   -1.8740    0.0000 N   0  0  0  0  0  0  0  0  0  0  0  0
   -2.8476   -0.4097    0.0000 C   0  0  0  0  0  0  0  0  0  0  0  0
   -1.4168    0.0405    0.0000 C   0  0  0  0  0  0  0  0  0  0  0  0
   -0.3114   -0.9735    0.0000 C   0  0  0  0  0  0  0  0  0  0  0  0
    1.1194   -0.5232    0.0000 C   0  0  0  0  0  0  0  0  0  0  0  0
    1.4449    0.9411    0.0000 C   0  0  0  0  0  0  0  0  0  0  0  0
    2.8757    1.3913    0.0000 C   0  0  0  0  0  0  0  0  0  0  0  0
    3.9810    0.3773    0.0000 C   0  0  0  0  0  0  0  0  0  0  0  0
    5.4119    0.8276    0.0000 F   0  0  0  0  0  0  0  0  0  0  0  0
    3.6556   -1.0870    0.0000 C   0  0  0  0  0  0  0  0  0  0  0  0
    2.2247   -1.5372    0.0000 C   0  0  0  0  0  0  0  0  0  0  0  0
   -3.9530    0.6043    0.0000 C   0  0  0  0  0  0  0  0  0  0  0  0
   -3.6275    2.0685    0.0000 O   0  0  0  0  0  0  0  0  0  0  0  0
   -5.3838    0.1540    0.0000 O   0  0  0  0  0  0  0  0  0  0  0  0
  2  1  1  6
  2  3  1  0
  3  4  1  0
  4  5  1  0
  5  6  1  0
  6  7  2  0
  7  8  1  0
  8  9  1  0
  8 10  2  0
 10 11  1  0
  2 12  1  0
 12 13  2  0
 12 14  1  0
 11  5  2  0
M  END
>  <rName>  (1398) 
hPhe_4F

>  <PQ_SYMBOL>  (1398) 
hPhe_4F

>  <FULL_NAME>  (1398) 
(S)-2-amino-4-(4-fluorophenyl)butanoic acid

>  <IUPAC_CONDENSED>  (1398) 
hPhe(4-F)

>  <IUPAC>  (1398) 
(2S)-2-amino-4-(4-fluorophenyl)butanoic acid

>  <TYPE>  (1398) 
Backbone

>  <CLASS>  (1398) 
alpha

>  <ANALOG>  (1398) 
Phe

>  <MOL_WT>  (1398) 
197.209

>  <LOGP>  (1398) 
1.1702

>  <TPSA>  (1398) 
63.32000000000001

>  <POPULARITY>  (1398) 
5.7

>  <PROTECTED>  (1398) 
TRUE

>  <SMILES>  (1398) 
N[C@@H](CCc1(ccc(F)cc1))C(=O)O

>  <INCHIKEY>  (1398) 
WMMMRQAUOPVWML-VIFPVBQESA-N

$$$$
hLeu_Me
     RDKit          2D

 11 10  0  0  0  0  0  0  0  0999 V2000
    1.5275    1.9644    0.0000 N   0  0  0  0  0  0  0  0  0  0  0  0
    1.4450    0.4666    0.0000 C   0  0  0  0  0  0  0  0  0  0  0  0
    0.1067   -0.2107    0.0000 C   0  0  0  0  0  0  0  0  0  0  0  0
   -1.1491    0.6096    0.0000 C   0  0  0  0  0  0  0  0  0  0  0  0
   -2.4875   -0.0678    0.0000 C   0  0  0  0  0  0  0  0  0  0  0  0
   -3.1649    1.2706    0.0000 C   0  0  0  0  0  0  0  0  0  0  0  0
   -1.8101   -1.4061    0.0000 C   0  0  0  0  0  0  0  0  0  0  0  0
   -3.8258   -0.7452    0.0000 C   0  0  0  0  0  0  0  0  0  0  0  0
    2.7008   -0.3537    0.0000 C   0  0  0  0  0  0  0  0  0  0  0  0
    2.6183   -1.8514    0.0000 O   0  0  0  0  0  0  0  0  0  0  0  0
    4.0391    0.3237    0.0000 O   0  0  0  0  0  0  0  0  0  0  0  0
  2  1  1  6
  2  3  1  0
  3  4  1  0
  4  5  1  0
  5  6  1  0
  5  7  1  0
  5  8  1  0
  2  9  1  0
  9 10  2  0
  9 11  1  0
M  END
>  <rName>  (1399) 
hLeu_Me

>  <PQ_SYMBOL>  (1399) 
hLeu_Me

>  <FULL_NAME>  (1399) 
(S)-2-amino-5,5-dimethylhexanoic acid

>  <IUPAC_CONDENSED>  (1399) 
hLeu(Me)

>  <IUPAC>  (1399) 
(2S)-2-amino-5,5-dimethylhexanoic acid

>  <TYPE>  (1399) 
Backbone

>  <CLASS>  (1399) 
alpha

>  <ANALOG>  (1399) 
Leu

>  <MOL_WT>  (1399) 
159.22899999999998

>  <LOGP>  (1399) 
1.2245999999999997

>  <TPSA>  (1399) 
63.32000000000001

>  <POPULARITY>  (1399) 
8.6

>  <PROTECTED>  (1399) 
TRUE

>  <SMILES>  (1399) 
N[C@@H](CCC(C)(C)C)C(=O)O

>  <INCHIKEY>  (1399) 
HMQBHFUPSBOCOE-LURJTMIESA-N

$$$$
5-Ava_4carbonyl
     RDKit          2D

  9  8  0  0  0  0  0  0  0  0999 V2000
    4.0458    0.2755    0.0000 N   0  0  0  0  0  0  0  0  0  0  0  0
    2.6491    0.8225    0.0000 C   0  0  0  0  0  0  0  0  0  0  0  0
    1.4770   -0.1135    0.0000 C   0  0  0  0  0  0  0  0  0  0  0  0
    1.7016   -1.5966    0.0000 O   0  0  0  0  0  0  0  0  0  0  0  0
    0.0803    0.4336    0.0000 C   0  0  0  0  0  0  0  0  0  0  0  0
   -1.0918   -0.5025    0.0000 C   0  0  0  0  0  0  0  0  0  0  0  0
   -2.4885    0.0446    0.0000 C   0  0  0  0  0  0  0  0  0  0  0  0
   -2.7130    1.5277    0.0000 O   0  0  0  0  0  0  0  0  0  0  0  0
   -3.6606   -0.8914    0.0000 O   0  0  0  0  0  0  0  0  0  0  0  0
  1  2  1  0
  2  3  1  0
  3  4  2  0
  3  5  1  0
  5  6  1  0
  6  7  1  0
  7  8  2  0
  7  9  1  0
M  END
>  <rName>  (1400) 
5-Ava_4carbonyl

>  <PQ_SYMBOL>  (1400) 
5-Ava_4carbonyl

>  <FULL_NAME>  (1400) 
5-amino-4-oxopentanoic acid

>  <IUPAC_CONDENSED>  (1400) 
5-Ava(4-carbonyl)

>  <IUPAC>  (1400) 
5-amino-4-oxopentanoic acid

>  <TYPE>  (1400) 
Backbone

>  <CLASS>  (1400) 
delta

>  <ANALOG>  (1400) 
Gly

>  <MOL_WT>  (1400) 
131.131

>  <LOGP>  (1400) 
-0.6210000000000004

>  <TPSA>  (1400) 
80.39

>  <POPULARITY>  (1400) 
10.8

>  <PROTECTED>  (1400) 
TRUE

>  <SMILES>  (1400) 
NCC(=O)CCC(=O)O

>  <INCHIKEY>  (1400) 
ZGXJTSGNIOSYLO-UHFFFAOYSA-N

$$$$
D-hTyr_Me
     RDKit          2D

 15 15  0  0  0  0  0  0  0  0999 V2000
   -3.5955   -1.8848    0.0000 N   0  0  0  0  0  0  0  0  0  0  0  0
   -3.2795   -0.4184    0.0000 C   0  0  0  0  0  0  0  0  0  0  0  0
   -1.8516    0.0410    0.0000 C   0  0  0  0  0  0  0  0  0  0  0  0
   -0.7397   -0.9658    0.0000 C   0  0  0  0  0  0  0  0  0  0  0  0
    0.6882   -0.5064    0.0000 C   0  0  0  0  0  0  0  0  0  0  0  0
    1.0042    0.9600    0.0000 C   0  0  0  0  0  0  0  0  0  0  0  0
    2.4321    1.4194    0.0000 C   0  0  0  0  0  0  0  0  0  0  0  0
    3.5440    0.4126    0.0000 C   0  0  0  0  0  0  0  0  0  0  0  0
    4.9719    0.8721    0.0000 O   0  0  0  0  0  0  0  0  0  0  0  0
    6.0837   -0.1348    0.0000 C   0  0  0  0  0  0  0  0  0  0  0  0
    3.2279   -1.0537    0.0000 C   0  0  0  0  0  0  0  0  0  0  0  0
    1.8000   -1.5132    0.0000 C   0  0  0  0  0  0  0  0  0  0  0  0
   -4.3913    0.5884    0.0000 C   0  0  0  0  0  0  0  0  0  0  0  0
   -4.0753    2.0547    0.0000 O   0  0  0  0  0  0  0  0  0  0  0  0
   -5.8192    0.1289    0.0000 O   0  0  0  0  0  0  0  0  0  0  0  0
  2  1  1  1
  2  3  1  0
  3  4  1  0
  4  5  1  0
  5  6  1  0
  6  7  2  0
  7  8  1  0
  8  9  1  0
  9 10  1  0
  8 11  2  0
 11 12  1  0
  2 13  1  0
 13 14  2  0
 13 15  1  0
 12  5  2  0
M  END
>  <rName>  (1401) 
D-hTyr_Me

>  <PQ_SYMBOL>  (1401) 
D-hTyr_Me

>  <FULL_NAME>  (1401) 
(R)-2-amino-4-(4-methoxyphenyl)butanoic acid

>  <IUPAC_CONDENSED>  (1401) 
D-hTyr(Me)

>  <IUPAC>  (1401) 
(2R)-2-amino-4-(4-methoxyphenyl)butanoic acid

>  <TYPE>  (1401) 
Backbone

>  <CLASS>  (1401) 
alpha

>  <ANALOG>  (1401) 
Tyr

>  <MOL_WT>  (1401) 
209.24499999999998

>  <LOGP>  (1401) 
1.0396999999999998

>  <TPSA>  (1401) 
72.55

>  <POPULARITY>  (1401) 
6.4

>  <PROTECTED>  (1401) 
TRUE

>  <SMILES>  (1401) 
N[C@H](CCc1(ccc(OC)cc1))C(=O)O

>  <INCHIKEY>  (1401) 
JADFNIWVWZWOFA-SNVBAGLBSA-N

$$$$
hTyr_Me
     RDKit          2D

 15 15  0  0  0  0  0  0  0  0999 V2000
   -3.5955   -1.8848    0.0000 N   0  0  0  0  0  0  0  0  0  0  0  0
   -3.2795   -0.4184    0.0000 C   0  0  0  0  0  0  0  0  0  0  0  0
   -1.8516    0.0410    0.0000 C   0  0  0  0  0  0  0  0  0  0  0  0
   -0.7397   -0.9658    0.0000 C   0  0  0  0  0  0  0  0  0  0  0  0
    0.6882   -0.5064    0.0000 C   0  0  0  0  0  0  0  0  0  0  0  0
    1.0042    0.9600    0.0000 C   0  0  0  0  0  0  0  0  0  0  0  0
    2.4321    1.4194    0.0000 C   0  0  0  0  0  0  0  0  0  0  0  0
    3.5440    0.4126    0.0000 C   0  0  0  0  0  0  0  0  0  0  0  0
    4.9719    0.8721    0.0000 O   0  0  0  0  0  0  0  0  0  0  0  0
    6.0837   -0.1348    0.0000 C   0  0  0  0  0  0  0  0  0  0  0  0
    3.2279   -1.0537    0.0000 C   0  0  0  0  0  0  0  0  0  0  0  0
    1.8000   -1.5132    0.0000 C   0  0  0  0  0  0  0  0  0  0  0  0
   -4.3913    0.5884    0.0000 C   0  0  0  0  0  0  0  0  0  0  0  0
   -4.0753    2.0547    0.0000 O   0  0  0  0  0  0  0  0  0  0  0  0
   -5.8192    0.1289    0.0000 O   0  0  0  0  0  0  0  0  0  0  0  0
  2  1  1  6
  2  3  1  0
  3  4  1  0
  4  5  1  0
  5  6  1  0
  6  7  2  0
  7  8  1  0
  8  9  1  0
  9 10  1  0
  8 11  2  0
 11 12  1  0
  2 13  1  0
 13 14  2  0
 13 15  1  0
 12  5  2  0
M  END
>  <rName>  (1402) 
hTyr_Me

>  <PQ_SYMBOL>  (1402) 
hTyr_Me

>  <FULL_NAME>  (1402) 
(S)-2-amino-4-(4-methoxyphenyl)butanoic acid

>  <IUPAC_CONDENSED>  (1402) 
hTyr(Me)

>  <IUPAC>  (1402) 
(2S)-2-amino-4-(4-methoxyphenyl)butanoic acid

>  <TYPE>  (1402) 
Backbone

>  <CLASS>  (1402) 
alpha

>  <ANALOG>  (1402) 
Tyr

>  <MOL_WT>  (1402) 
209.24499999999998

>  <LOGP>  (1402) 
1.0396999999999998

>  <TPSA>  (1402) 
72.55

>  <POPULARITY>  (1402) 
7.7

>  <PROTECTED>  (1402) 
TRUE

>  <SMILES>  (1402) 
N[C@@H](CCc1(ccc(OC)cc1))C(=O)O

>  <INCHIKEY>  (1402) 
JADFNIWVWZWOFA-JTQLQIEISA-N

$$$$
hPhe_3OMe
     RDKit          2D

 15 15  0  0  0  0  0  0  0  0999 V2000
   -3.0687   -2.0959    0.0000 N   0  0  0  0  0  0  0  0  0  0  0  0
   -3.0421   -0.5961    0.0000 C   0  0  0  0  0  0  0  0  0  0  0  0
   -1.7300    0.1307    0.0000 C   0  0  0  0  0  0  0  0  0  0  0  0
   -0.4445   -0.6422    0.0000 C   0  0  0  0  0  0  0  0  0  0  0  0
    0.8677    0.0846    0.0000 C   0  0  0  0  0  0  0  0  0  0  0  0
    0.8943    1.5844    0.0000 C   0  0  0  0  0  0  0  0  0  0  0  0
    2.2064    2.3112    0.0000 C   0  0  0  0  0  0  0  0  0  0  0  0
    3.4919    1.5383    0.0000 C   0  0  0  0  0  0  0  0  0  0  0  0
    3.4653    0.0385    0.0000 C   0  0  0  0  0  0  0  0  0  0  0  0
    4.7509   -0.7344    0.0000 O   0  0  0  0  0  0  0  0  0  0  0  0
    4.7243   -2.2342    0.0000 C   0  0  0  0  0  0  0  0  0  0  0  0
    2.1532   -0.6883    0.0000 C   0  0  0  0  0  0  0  0  0  0  0  0
   -4.3277    0.1768    0.0000 C   0  0  0  0  0  0  0  0  0  0  0  0
   -4.3011    1.6766    0.0000 O   0  0  0  0  0  0  0  0  0  0  0  0
   -5.6398   -0.5500    0.0000 O   0  0  0  0  0  0  0  0  0  0  0  0
  2  1  1  6
  2  3  1  0
  3  4  1  0
  4  5  1  0
  5  6  1  0
  6  7  2  0
  7  8  1  0
  8  9  2  0
  9 10  1  0
 10 11  1  0
  9 12  1  0
  2 13  1  0
 13 14  2  0
 13 15  1  0
 12  5  2  0
M  END
>  <rName>  (1403) 
hPhe_3OMe

>  <PQ_SYMBOL>  (1403) 
hPhe_3OMe

>  <FULL_NAME>  (1403) 
(S)-2-amino-4-(3-methoxyphenyl)butanoic acid

>  <IUPAC_CONDENSED>  (1403) 
hPhe(3-OMe)

>  <IUPAC>  (1403) 
(2S)-2-amino-4-(3-methoxyphenyl)butanoic acid

>  <TYPE>  (1403) 
Backbone

>  <CLASS>  (1403) 
alpha

>  <ANALOG>  (1403) 
Tyr

>  <MOL_WT>  (1403) 
209.24499999999998

>  <LOGP>  (1403) 
1.0396999999999998

>  <TPSA>  (1403) 
72.55

>  <POPULARITY>  (1403) 
6.3

>  <PROTECTED>  (1403) 
TRUE

>  <SMILES>  (1403) 
N[C@@H](CCc1(cccc(OC)c1))C(=O)O

>  <INCHIKEY>  (1403) 
HEOJABVYJADWNP-JTQLQIEISA-N

$$$$
D-hPhe_3OMe
     RDKit          2D

 15 15  0  0  0  0  0  0  0  0999 V2000
   -3.0687   -2.0959    0.0000 N   0  0  0  0  0  0  0  0  0  0  0  0
   -3.0421   -0.5961    0.0000 C   0  0  0  0  0  0  0  0  0  0  0  0
   -1.7300    0.1307    0.0000 C   0  0  0  0  0  0  0  0  0  0  0  0
   -0.4445   -0.6422    0.0000 C   0  0  0  0  0  0  0  0  0  0  0  0
    0.8677    0.0846    0.0000 C   0  0  0  0  0  0  0  0  0  0  0  0
    0.8943    1.5844    0.0000 C   0  0  0  0  0  0  0  0  0  0  0  0
    2.2064    2.3112    0.0000 C   0  0  0  0  0  0  0  0  0  0  0  0
    3.4919    1.5383    0.0000 C   0  0  0  0  0  0  0  0  0  0  0  0
    3.4653    0.0385    0.0000 C   0  0  0  0  0  0  0  0  0  0  0  0
    4.7509   -0.7344    0.0000 O   0  0  0  0  0  0  0  0  0  0  0  0
    4.7243   -2.2342    0.0000 C   0  0  0  0  0  0  0  0  0  0  0  0
    2.1532   -0.6883    0.0000 C   0  0  0  0  0  0  0  0  0  0  0  0
   -4.3277    0.1768    0.0000 C   0  0  0  0  0  0  0  0  0  0  0  0
   -4.3011    1.6766    0.0000 O   0  0  0  0  0  0  0  0  0  0  0  0
   -5.6398   -0.5500    0.0000 O   0  0  0  0  0  0  0  0  0  0  0  0
  2  1  1  1
  2  3  1  0
  3  4  1  0
  4  5  1  0
  5  6  1  0
  6  7  2  0
  7  8  1  0
  8  9  2  0
  9 10  1  0
 10 11  1  0
  9 12  1  0
  2 13  1  0
 13 14  2  0
 13 15  1  0
 12  5  2  0
M  END
>  <rName>  (1404) 
D-hPhe_3OMe

>  <PQ_SYMBOL>  (1404) 
D-hPhe_3OMe

>  <FULL_NAME>  (1404) 
(R)-2-amino-4-(3-methoxyphenyl)butanoic acid

>  <IUPAC_CONDENSED>  (1404) 
D-hPhe(3-OMe)

>  <IUPAC>  (1404) 
(2R)-2-amino-4-(3-methoxyphenyl)butanoic acid

>  <TYPE>  (1404) 
Backbone

>  <CLASS>  (1404) 
alpha

>  <ANALOG>  (1404) 
Tyr

>  <MOL_WT>  (1404) 
209.24499999999998

>  <LOGP>  (1404) 
1.0396999999999998

>  <TPSA>  (1404) 
72.55

>  <POPULARITY>  (1404) 
5.9

>  <PROTECTED>  (1404) 
TRUE

>  <SMILES>  (1404) 
N[C@H](CCc1(cccc(OC)c1))C(=O)O

>  <INCHIKEY>  (1404) 
HEOJABVYJADWNP-SNVBAGLBSA-N

$$$$
D-hPhe_2OMe
     RDKit          2D

 15 15  0  0  0  0  0  0  0  0999 V2000
   -2.7831   -1.9835    0.0000 N   0  0  0  0  0  0  0  0  0  0  0  0
   -2.7742   -0.4835    0.0000 C   0  0  0  0  0  0  0  0  0  0  0  0
   -1.4707    0.2588    0.0000 C   0  0  0  0  0  0  0  0  0  0  0  0
   -0.1762   -0.4990    0.0000 C   0  0  0  0  0  0  0  0  0  0  0  0
    1.1273    0.2433    0.0000 C   0  0  0  0  0  0  0  0  0  0  0  0
    1.1362    1.7433    0.0000 C   0  0  0  0  0  0  0  0  0  0  0  0
    2.4397    2.4855    0.0000 C   0  0  0  0  0  0  0  0  0  0  0  0
    3.7343    1.7278    0.0000 C   0  0  0  0  0  0  0  0  0  0  0  0
    3.7253    0.2278    0.0000 C   0  0  0  0  0  0  0  0  0  0  0  0
    2.4219   -0.5144    0.0000 C   0  0  0  0  0  0  0  0  0  0  0  0
    2.4129   -2.0144    0.0000 O   0  0  0  0  0  0  0  0  0  0  0  0
    3.7075   -2.7721    0.0000 C   0  0  0  0  0  0  0  0  0  0  0  0
   -4.0688    0.2742    0.0000 C   0  0  0  0  0  0  0  0  0  0  0  0
   -4.0598    1.7742    0.0000 O   0  0  0  0  0  0  0  0  0  0  0  0
   -5.3722   -0.4680    0.0000 O   0  0  0  0  0  0  0  0  0  0  0  0
  2  1  1  1
  2  3  1  0
  3  4  1  0
  4  5  1  0
  5  6  2  0
  6  7  1  0
  7  8  2  0
  8  9  1  0
  9 10  2  0
 10 11  1  0
 11 12  1  0
  2 13  1  0
 13 14  2  0
 13 15  1  0
 10  5  1  0
M  END
>  <rName>  (1405) 
D-hPhe_2OMe

>  <PQ_SYMBOL>  (1405) 
D-hPhe_2OMe

>  <FULL_NAME>  (1405) 
(R)-2-amino-4-(2-methoxyphenyl)butanoic acid

>  <IUPAC_CONDENSED>  (1405) 
D-hPhe(2-OMe)

>  <IUPAC>  (1405) 
(2R)-2-amino-4-(2-methoxyphenyl)butanoic acid

>  <TYPE>  (1405) 
Backbone

>  <CLASS>  (1405) 
alpha

>  <ANALOG>  (1405) 
Tyr

>  <MOL_WT>  (1405) 
209.24499999999995

>  <LOGP>  (1405) 
1.0396999999999998

>  <TPSA>  (1405) 
72.55

>  <POPULARITY>  (1405) 
5.5

>  <PROTECTED>  (1405) 
TRUE

>  <SMILES>  (1405) 
N[C@H](CCc1(ccccc1OC))C(=O)O

>  <INCHIKEY>  (1405) 
XHMOJLCCRFYKKC-SECBINFHSA-N

$$$$
D-hPhe_2F
     RDKit          2D

 14 14  0  0  0  0  0  0  0  0999 V2000
   -2.7345   -1.9034    0.0000 N   0  0  0  0  0  0  0  0  0  0  0  0
   -2.5673   -0.4128    0.0000 C   0  0  0  0  0  0  0  0  0  0  0  0
   -1.1928    0.1877    0.0000 C   0  0  0  0  0  0  0  0  0  0  0  0
    0.0146   -0.7024    0.0000 C   0  0  0  0  0  0  0  0  0  0  0  0
    1.3891   -0.1019    0.0000 C   0  0  0  0  0  0  0  0  0  0  0  0
    1.5563    1.3887    0.0000 C   0  0  0  0  0  0  0  0  0  0  0  0
    2.9309    1.9892    0.0000 C   0  0  0  0  0  0  0  0  0  0  0  0
    4.1382    1.0991    0.0000 C   0  0  0  0  0  0  0  0  0  0  0  0
    3.9710   -0.3916    0.0000 C   0  0  0  0  0  0  0  0  0  0  0  0
    2.5965   -0.9921    0.0000 C   0  0  0  0  0  0  0  0  0  0  0  0
    2.4292   -2.4827    0.0000 F   0  0  0  0  0  0  0  0  0  0  0  0
   -3.7746    0.4773    0.0000 C   0  0  0  0  0  0  0  0  0  0  0  0
   -3.6074    1.9680    0.0000 O   0  0  0  0  0  0  0  0  0  0  0  0
   -5.1492   -0.1232    0.0000 O   0  0  0  0  0  0  0  0  0  0  0  0
  2  1  1  1
  2  3  1  0
  3  4  1  0
  4  5  1  0
  5  6  2  0
  6  7  1  0
  7  8  2  0
  8  9  1  0
  9 10  2  0
 10 11  1  0
  2 12  1  0
 12 13  2  0
 12 14  1  0
 10  5  1  0
M  END
>  <rName>  (1406) 
D-hPhe_2F

>  <PQ_SYMBOL>  (1406) 
D-hPhe_2F

>  <FULL_NAME>  (1406) 
(R)-2-amino-4-(2-fluorophenyl)butanoic acid

>  <IUPAC_CONDENSED>  (1406) 
D-hPhe(2-F)

>  <IUPAC>  (1406) 
(2R)-2-amino-4-(2-fluorophenyl)butanoic acid

>  <TYPE>  (1406) 
Backbone

>  <CLASS>  (1406) 
alpha

>  <ANALOG>  (1406) 
Phe

>  <MOL_WT>  (1406) 
197.20899999999995

>  <LOGP>  (1406) 
1.1702

>  <TPSA>  (1406) 
63.32000000000001

>  <POPULARITY>  (1406) 
7.3

>  <PROTECTED>  (1406) 
TRUE

>  <SMILES>  (1406) 
N[C@H](CCc1(ccccc1F))C(=O)O

>  <INCHIKEY>  (1406) 
HKDDGWLHCOPIQU-SECBINFHSA-N

$$$$
D-hPhe_2Cl
     RDKit          2D

 14 14  0  0  0  0  0  0  0  0999 V2000
   -2.7345   -1.9034    0.0000 N   0  0  0  0  0  0  0  0  0  0  0  0
   -2.5673   -0.4128    0.0000 C   0  0  0  0  0  0  0  0  0  0  0  0
   -1.1928    0.1877    0.0000 C   0  0  0  0  0  0  0  0  0  0  0  0
    0.0146   -0.7024    0.0000 C   0  0  0  0  0  0  0  0  0  0  0  0
    1.3891   -0.1019    0.0000 C   0  0  0  0  0  0  0  0  0  0  0  0
    1.5563    1.3887    0.0000 C   0  0  0  0  0  0  0  0  0  0  0  0
    2.9309    1.9892    0.0000 C   0  0  0  0  0  0  0  0  0  0  0  0
    4.1382    1.0991    0.0000 C   0  0  0  0  0  0  0  0  0  0  0  0
    3.9710   -0.3916    0.0000 C   0  0  0  0  0  0  0  0  0  0  0  0
    2.5965   -0.9921    0.0000 C   0  0  0  0  0  0  0  0  0  0  0  0
    2.4292   -2.4827    0.0000 Cl  0  0  0  0  0  0  0  0  0  0  0  0
   -3.7746    0.4773    0.0000 C   0  0  0  0  0  0  0  0  0  0  0  0
   -3.6074    1.9680    0.0000 O   0  0  0  0  0  0  0  0  0  0  0  0
   -5.1492   -0.1232    0.0000 O   0  0  0  0  0  0  0  0  0  0  0  0
  2  1  1  1
  2  3  1  0
  3  4  1  0
  4  5  1  0
  5  6  2  0
  6  7  1  0
  7  8  2  0
  8  9  1  0
  9 10  2  0
 10 11  1  0
  2 12  1  0
 12 13  2  0
 12 14  1  0
 10  5  1  0
M  END
>  <rName>  (1407) 
D-hPhe_2Cl

>  <PQ_SYMBOL>  (1407) 
D-hPhe_2Cl

>  <FULL_NAME>  (1407) 
(R)-2-amino-4-(2-chlorophenyl)butanoic acid

>  <IUPAC_CONDENSED>  (1407) 
D-hPhe(2-Cl)

>  <IUPAC>  (1407) 
(2R)-2-amino-4-(2-chlorophenyl)butanoic acid

>  <TYPE>  (1407) 
Backbone

>  <CLASS>  (1407) 
alpha

>  <ANALOG>  (1407) 
Phe

>  <MOL_WT>  (1407) 
213.66399999999996

>  <LOGP>  (1407) 
1.6844999999999999

>  <TPSA>  (1407) 
63.32000000000001

>  <POPULARITY>  (1407) 
6.3

>  <PROTECTED>  (1407) 
TRUE

>  <SMILES>  (1407) 
N[C@H](CCc1(ccccc1Cl))C(=O)O

>  <INCHIKEY>  (1407) 
ZYQDUOLAVXZHAL-SECBINFHSA-N

$$$$
NEt-dA
     RDKit          2D

  8  7  0  0  0  0  0  0  0  0999 V2000
   -0.9331   -0.9230    0.0000 N   0  0  0  0  0  0  0  0  0  0  0  0
   -1.8248    0.2832    0.0000 C   0  0  0  0  0  0  0  0  0  0  0  0
   -3.3153    0.1141    0.0000 C   0  0  0  0  0  0  0  0  0  0  0  0
    0.5573   -0.7539    0.0000 C   0  0  0  0  0  0  0  0  0  0  0  0
    1.4490   -1.9601    0.0000 C   0  0  0  0  0  0  0  0  0  0  0  0
    1.1561    0.6215    0.0000 C   0  0  0  0  0  0  0  0  0  0  0  0
    0.2644    1.8276    0.0000 O   0  0  0  0  0  0  0  0  0  0  0  0
    2.6465    0.7906    0.0000 O   0  0  0  0  0  0  0  0  0  0  0  0
  1  2  1  0
  2  3  1  0
  1  4  1  0
  4  5  1  1
  4  6  1  0
  6  7  2  0
  6  8  1  0
M  END
>  <rName>  (1408) 
NEt-dA

>  <PQ_SYMBOL>  (1408) 
NEt-dA

>  <FULL_NAME>  (1408) 
ethyl-D-alanine

>  <IUPAC_CONDENSED>  (1408) 
Et-D-Ala

>  <IUPAC>  (1408) 
(2R)-2-(ethylamino)propanoic acid

>  <TYPE>  (1408) 
Backbone

>  <CLASS>  (1408) 
alpha

>  <ANALOG>  (1408) 
Ala

>  <MOL_WT>  (1408) 
117.14799999999998

>  <LOGP>  (1408) 
0.06900000000000012

>  <TPSA>  (1408) 
49.33

>  <POPULARITY>  (1408) 
16.9

>  <PROTECTED>  (1408) 
TRUE

>  <SMILES>  (1408) 
N(CC)[C@H](C)C(=O)O

>  <INCHIKEY>  (1408) 
DATPFTPVGIHCCM-SCSAIBSYSA-N

$$$$
D-hPhe_2CF3
     RDKit          2D

 17 17  0  0  0  0  0  0  0  0999 V2000
   -2.8723   -1.8951    0.0000 N   0  0  0  0  0  0  0  0  0  0  0  0
   -2.9617   -0.3978    0.0000 C   0  0  0  0  0  0  0  0  0  0  0  0
   -1.7097    0.4283    0.0000 C   0  0  0  0  0  0  0  0  0  0  0  0
   -0.3682   -0.2430    0.0000 C   0  0  0  0  0  0  0  0  0  0  0  0
    0.8838    0.5831    0.0000 C   0  0  0  0  0  0  0  0  0  0  0  0
    0.7944    2.0805    0.0000 C   0  0  0  0  0  0  0  0  0  0  0  0
    2.0464    2.9065    0.0000 C   0  0  0  0  0  0  0  0  0  0  0  0
    3.3879    2.2353    0.0000 C   0  0  0  0  0  0  0  0  0  0  0  0
    3.4772    0.7379    0.0000 C   0  0  0  0  0  0  0  0  0  0  0  0
    2.2252   -0.0881    0.0000 C   0  0  0  0  0  0  0  0  0  0  0  0
    2.3146   -1.5855    0.0000 C   0  0  0  0  0  0  0  0  0  0  0  0
    2.4040   -3.0828    0.0000 F   0  0  0  0  0  0  0  0  0  0  0  0
    3.8119   -1.4961    0.0000 F   0  0  0  0  0  0  0  0  0  0  0  0
    0.8173   -1.6749    0.0000 F   0  0  0  0  0  0  0  0  0  0  0  0
   -4.3031    0.2735    0.0000 C   0  0  0  0  0  0  0  0  0  0  0  0
   -4.3925    1.7708    0.0000 O   0  0  0  0  0  0  0  0  0  0  0  0
   -5.5552   -0.5526    0.0000 O   0  0  0  0  0  0  0  0  0  0  0  0
  2  1  1  1
  2  3  1  0
  3  4  1  0
  4  5  1  0
  5  6  2  0
  6  7  1  0
  7  8  2  0
  8  9  1  0
  9 10  2  0
 10 11  1  0
 11 12  1  0
 11 13  1  0
 11 14  1  0
  2 15  1  0
 15 16  2  0
 15 17  1  0
 10  5  1  0
M  END
>  <rName>  (1409) 
D-hPhe_2CF3

>  <PQ_SYMBOL>  (1409) 
D-hPhe_2CF3

>  <FULL_NAME>  (1409) 
(R)-2-amino-4-(2-(trifluoromethyl)phenyl)butanoic acid

>  <IUPAC_CONDENSED>  (1409) 
D-hPhe(2-CF3)

>  <IUPAC>  (1409) 
(2R)-2-amino-4-(2-(trifluoromethyl)phenyl)butanoic acid

>  <TYPE>  (1409) 
Backbone

>  <CLASS>  (1409) 
alpha

>  <ANALOG>  (1409) 
Phe

>  <MOL_WT>  (1409) 
247.21599999999992

>  <LOGP>  (1409) 
2.0499

>  <TPSA>  (1409) 
63.32000000000001

>  <POPULARITY>  (1409) 
3.8

>  <PROTECTED>  (1409) 
TRUE

>  <SMILES>  (1409) 
N[C@H](CCc1(ccccc1C(F)(F)F))C(=O)O

>  <INCHIKEY>  (1409) 
BCXGVVUDFMBXEM-SECBINFHSA-N

$$$$
D-hPhe_26diF
     RDKit          2D

 15 15  0  0  0  0  0  0  0  0999 V2000
   -2.7730   -2.0349    0.0000 N   0  0  0  0  0  0  0  0  0  0  0  0
   -2.5947   -0.5455    0.0000 C   0  0  0  0  0  0  0  0  0  0  0  0
   -1.2157    0.0448    0.0000 C   0  0  0  0  0  0  0  0  0  0  0  0
   -0.0150   -0.8543    0.0000 C   0  0  0  0  0  0  0  0  0  0  0  0
    1.3639   -0.2640    0.0000 C   0  0  0  0  0  0  0  0  0  0  0  0
    1.5422    1.2254    0.0000 C   0  0  0  0  0  0  0  0  0  0  0  0
    0.3415    2.1245    0.0000 F   0  0  0  0  0  0  0  0  0  0  0  0
    2.9212    1.8157    0.0000 C   0  0  0  0  0  0  0  0  0  0  0  0
    4.1219    0.9166    0.0000 C   0  0  0  0  0  0  0  0  0  0  0  0
    3.9436   -0.5727    0.0000 C   0  0  0  0  0  0  0  0  0  0  0  0
    2.5646   -1.1630    0.0000 C   0  0  0  0  0  0  0  0  0  0  0  0
    2.3864   -2.6524    0.0000 F   0  0  0  0  0  0  0  0  0  0  0  0
   -3.7954    0.3536    0.0000 C   0  0  0  0  0  0  0  0  0  0  0  0
   -3.6171    1.8429    0.0000 O   0  0  0  0  0  0  0  0  0  0  0  0
   -5.1744   -0.2367    0.0000 O   0  0  0  0  0  0  0  0  0  0  0  0
  2  1  1  1
  2  3  1  0
  3  4  1  0
  4  5  1  0
  5  6  2  0
  6  7  1  0
  6  8  1  0
  8  9  2  0
  9 10  1  0
 10 11  2  0
 11 12  1  0
  2 13  1  0
 13 14  2  0
 13 15  1  0
 11  5  1  0
M  END
>  <rName>  (1410) 
D-hPhe_26diF

>  <PQ_SYMBOL>  (1410) 
D-hPhe_26diF

>  <FULL_NAME>  (1410) 
(R)-2-amino-4-(2,6-difluorophenyl)butanoic acid

>  <IUPAC_CONDENSED>  (1410) 
D-hPhe(2,6-diF)

>  <IUPAC>  (1410) 
(2R)-2-amino-4-(2,6-difluorophenyl)butanoic acid

>  <TYPE>  (1410) 
Backbone

>  <CLASS>  (1410) 
alpha

>  <ANALOG>  (1410) 
Phe

>  <MOL_WT>  (1410) 
215.19899999999998

>  <LOGP>  (1410) 
1.3093

>  <TPSA>  (1410) 
63.32000000000001

>  <POPULARITY>  (1410) 
3.1

>  <PROTECTED>  (1410) 
TRUE

>  <SMILES>  (1410) 
N[C@H](CCc1(c(F)cccc1F))C(=O)O

>  <INCHIKEY>  (1410) 
OWSJVBLJVRUDJX-SECBINFHSA-N

$$$$
D-hPhe_25diF
     RDKit          2D

 15 15  0  0  0  0  0  0  0  0999 V2000
   -3.1338   -1.8409    0.0000 N   0  0  0  0  0  0  0  0  0  0  0  0
   -2.8232   -0.3734    0.0000 C   0  0  0  0  0  0  0  0  0  0  0  0
   -1.3970    0.0913    0.0000 C   0  0  0  0  0  0  0  0  0  0  0  0
   -0.2815   -0.9115    0.0000 C   0  0  0  0  0  0  0  0  0  0  0  0
    1.1447   -0.4467    0.0000 C   0  0  0  0  0  0  0  0  0  0  0  0
    1.4554    1.0207    0.0000 C   0  0  0  0  0  0  0  0  0  0  0  0
    2.8816    1.4855    0.0000 C   0  0  0  0  0  0  0  0  0  0  0  0
    3.1922    2.9530    0.0000 F   0  0  0  0  0  0  0  0  0  0  0  0
    3.9971    0.4827    0.0000 C   0  0  0  0  0  0  0  0  0  0  0  0
    3.6865   -0.9848    0.0000 C   0  0  0  0  0  0  0  0  0  0  0  0
    2.2603   -1.4495    0.0000 C   0  0  0  0  0  0  0  0  0  0  0  0
    1.9497   -2.9170    0.0000 F   0  0  0  0  0  0  0  0  0  0  0  0
   -3.9388    0.6293    0.0000 C   0  0  0  0  0  0  0  0  0  0  0  0
   -3.6281    2.0968    0.0000 O   0  0  0  0  0  0  0  0  0  0  0  0
   -5.3650    0.1646    0.0000 O   0  0  0  0  0  0  0  0  0  0  0  0
  2  1  1  1
  2  3  1  0
  3  4  1  0
  4  5  1  0
  5  6  1  0
  6  7  2  0
  7  8  1  0
  7  9  1  0
  9 10  2  0
 10 11  1  0
 11 12  1  0
  2 13  1  0
 13 14  2  0
 13 15  1  0
 11  5  2  0
M  END
>  <rName>  (1411) 
D-hPhe_25diF

>  <PQ_SYMBOL>  (1411) 
D-hPhe_25diF

>  <FULL_NAME>  (1411) 
(R)-2-amino-4-(2,5-difluorophenyl)butanoic acid

>  <IUPAC_CONDENSED>  (1411) 
D-hPhe(2,5-diF)

>  <IUPAC>  (1411) 
(2R)-2-amino-4-(2,5-difluorophenyl)butanoic acid

>  <TYPE>  (1411) 
Backbone

>  <CLASS>  (1411) 
alpha

>  <ANALOG>  (1411) 
Phe

>  <MOL_WT>  (1411) 
215.19899999999998

>  <LOGP>  (1411) 
1.3093

>  <TPSA>  (1411) 
63.32000000000001

>  <POPULARITY>  (1411) 
4.7

>  <PROTECTED>  (1411) 
TRUE

>  <SMILES>  (1411) 
N[C@H](CCc1(cc(F)ccc1F))C(=O)O

>  <INCHIKEY>  (1411) 
XEHBWDCZWQCJRP-SECBINFHSA-N

$$$$
hPhe_25diF
     RDKit          2D

 15 15  0  0  0  0  0  0  0  0999 V2000
   -3.1338   -1.8409    0.0000 N   0  0  0  0  0  0  0  0  0  0  0  0
   -2.8232   -0.3734    0.0000 C   0  0  0  0  0  0  0  0  0  0  0  0
   -1.3970    0.0913    0.0000 C   0  0  0  0  0  0  0  0  0  0  0  0
   -0.2815   -0.9115    0.0000 C   0  0  0  0  0  0  0  0  0  0  0  0
    1.1447   -0.4467    0.0000 C   0  0  0  0  0  0  0  0  0  0  0  0
    1.4554    1.0207    0.0000 C   0  0  0  0  0  0  0  0  0  0  0  0
    2.8816    1.4855    0.0000 C   0  0  0  0  0  0  0  0  0  0  0  0
    3.1922    2.9530    0.0000 F   0  0  0  0  0  0  0  0  0  0  0  0
    3.9971    0.4827    0.0000 C   0  0  0  0  0  0  0  0  0  0  0  0
    3.6865   -0.9848    0.0000 C   0  0  0  0  0  0  0  0  0  0  0  0
    2.2603   -1.4495    0.0000 C   0  0  0  0  0  0  0  0  0  0  0  0
    1.9497   -2.9170    0.0000 F   0  0  0  0  0  0  0  0  0  0  0  0
   -3.9388    0.6293    0.0000 C   0  0  0  0  0  0  0  0  0  0  0  0
   -3.6281    2.0968    0.0000 O   0  0  0  0  0  0  0  0  0  0  0  0
   -5.3650    0.1646    0.0000 O   0  0  0  0  0  0  0  0  0  0  0  0
  2  1  1  6
  2  3  1  0
  3  4  1  0
  4  5  1  0
  5  6  1  0
  6  7  2  0
  7  8  1  0
  7  9  1  0
  9 10  2  0
 10 11  1  0
 11 12  1  0
  2 13  1  0
 13 14  2  0
 13 15  1  0
 11  5  2  0
M  END
>  <rName>  (1412) 
hPhe_25diF

>  <PQ_SYMBOL>  (1412) 
hPhe_25diF

>  <FULL_NAME>  (1412) 
(S)-2-amino-4-(2,5-difluorophenyl)butanoic acid

>  <IUPAC_CONDENSED>  (1412) 
hPhe(2,5-diF)

>  <IUPAC>  (1412) 
(2S)-2-amino-4-(2,5-difluorophenyl)butanoic acid

>  <TYPE>  (1412) 
Backbone

>  <CLASS>  (1412) 
alpha

>  <ANALOG>  (1412) 
Phe

>  <MOL_WT>  (1412) 
215.19899999999998

>  <LOGP>  (1412) 
1.3093

>  <TPSA>  (1412) 
63.32000000000001

>  <POPULARITY>  (1412) 
5.4

>  <PROTECTED>  (1412) 
TRUE

>  <SMILES>  (1412) 
N[C@@H](CCc1(cc(F)ccc1F))C(=O)O

>  <INCHIKEY>  (1412) 
XEHBWDCZWQCJRP-VIFPVBQESA-N

$$$$
Phe_35diOMe
     RDKit          2D

 16 16  0  0  0  0  0  0  0  0999 V2000
   -2.2713    1.6293    0.0000 N   0  0  0  0  0  0  0  0  0  0  0  0
   -2.6343    0.1739    0.0000 C   0  0  0  0  0  0  0  0  0  0  0  0
   -1.5554   -0.8682    0.0000 C   0  0  0  0  0  0  0  0  0  0  0  0
   -0.1134   -0.4548    0.0000 C   0  0  0  0  0  0  0  0  0  0  0  0
    0.2496    1.0006    0.0000 C   0  0  0  0  0  0  0  0  0  0  0  0
    1.6915    1.4139    0.0000 C   0  0  0  0  0  0  0  0  0  0  0  0
    2.0545    2.8694    0.0000 O   0  0  0  0  0  0  0  0  0  0  0  0
    3.4964    3.2827    0.0000 C   0  0  0  0  0  0  0  0  0  0  0  0
    2.7704    0.3719    0.0000 C   0  0  0  0  0  0  0  0  0  0  0  0
    2.4074   -1.0836    0.0000 C   0  0  0  0  0  0  0  0  0  0  0  0
    3.4863   -2.1256    0.0000 O   0  0  0  0  0  0  0  0  0  0  0  0
    3.1233   -3.5810    0.0000 C   0  0  0  0  0  0  0  0  0  0  0  0
    0.9655   -1.4969    0.0000 C   0  0  0  0  0  0  0  0  0  0  0  0
   -4.0762   -0.2394    0.0000 C   0  0  0  0  0  0  0  0  0  0  0  0
   -4.4392   -1.6948    0.0000 O   0  0  0  0  0  0  0  0  0  0  0  0
   -5.1551    0.8027    0.0000 O   0  0  0  0  0  0  0  0  0  0  0  0
  2  1  1  1
  2  3  1  0
  3  4  1  0
  4  5  2  0
  5  6  1  0
  6  7  1  0
  7  8  1  0
  6  9  2  0
  9 10  1  0
 10 11  1  0
 11 12  1  0
 10 13  2  0
  2 14  1  0
 14 15  2  0
 14 16  1  0
 13  4  1  0
M  END
>  <rName>  (1413) 
Phe_35diOMe

>  <PQ_SYMBOL>  (1413) 
Phe_35diOMe

>  <FULL_NAME>  (1413) 
(S)-2-amino-3-(3,5-dimethoxyphenyl)propanoic acid

>  <IUPAC_CONDENSED>  (1413) 
Phe(3,5-diOMe)

>  <IUPAC>  (1413) 
(2S)-2-amino-3-(3,5-dimethoxyphenyl)propanoic acid

>  <TYPE>  (1413) 
Backbone

>  <CLASS>  (1413) 
alpha

>  <ANALOG>  (1413) 
Tyr

>  <MOL_WT>  (1413) 
225.24399999999997

>  <LOGP>  (1413) 
0.6581999999999999

>  <TPSA>  (1413) 
81.78

>  <POPULARITY>  (1413) 
4.6

>  <PROTECTED>  (1413) 
TRUE

>  <SMILES>  (1413) 
N[C@@H](Cc1(cc(OC)cc(OC)c1))C(=O)O

>  <INCHIKEY>  (1413) 
RGJFWLUOTAIYGQ-JTQLQIEISA-N

$$$$
D-Phe_4OPh
     RDKit          2D

 19 20  0  0  0  0  0  0  0  0999 V2000
   -4.0697    1.5683    0.0000 N   0  0  0  0  0  0  0  0  0  0  0  0
   -4.2646    0.0811    0.0000 C   0  0  0  0  0  0  0  0  0  0  0  0
   -3.0740   -0.8314    0.0000 C   0  0  0  0  0  0  0  0  0  0  0  0
   -1.6885   -0.2565    0.0000 C   0  0  0  0  0  0  0  0  0  0  0  0
   -1.4936    1.2308    0.0000 C   0  0  0  0  0  0  0  0  0  0  0  0
   -0.1082    1.8057    0.0000 C   0  0  0  0  0  0  0  0  0  0  0  0
    1.0824    0.8933    0.0000 C   0  0  0  0  0  0  0  0  0  0  0  0
    2.4679    1.4681    0.0000 O   0  0  0  0  0  0  0  0  0  0  0  0
    3.6585    0.5557    0.0000 C   0  0  0  0  0  0  0  0  0  0  0  0
    3.4636   -0.9316    0.0000 C   0  0  0  0  0  0  0  0  0  0  0  0
    4.6542   -1.8440    0.0000 C   0  0  0  0  0  0  0  0  0  0  0  0
    6.0396   -1.2691    0.0000 C   0  0  0  0  0  0  0  0  0  0  0  0
    6.2345    0.2182    0.0000 C   0  0  0  0  0  0  0  0  0  0  0  0
    5.0439    1.1306    0.0000 C   0  0  0  0  0  0  0  0  0  0  0  0
    0.8875   -0.5940    0.0000 C   0  0  0  0  0  0  0  0  0  0  0  0
   -0.4979   -1.1689    0.0000 C   0  0  0  0  0  0  0  0  0  0  0  0
   -5.6500   -0.4938    0.0000 C   0  0  0  0  0  0  0  0  0  0  0  0
   -5.8449   -1.9811    0.0000 O   0  0  0  0  0  0  0  0  0  0  0  0
   -6.8406    0.4186    0.0000 O   0  0  0  0  0  0  0  0  0  0  0  0
  2  1  1  6
  2  3  1  0
  3  4  1  0
  4  5  1  0
  5  6  2  0
  6  7  1  0
  7  8  1  0
  8  9  1  0
  9 10  2  0
 10 11  1  0
 11 12  2  0
 12 13  1  0
 13 14  2  0
  7 15  2  0
 15 16  1  0
  2 17  1  0
 17 18  2  0
 17 19  1  0
 14  9  1  0
 16  4  2  0
M  END
>  <rName>  (1414) 
D-Phe_4OPh

>  <PQ_SYMBOL>  (1414) 
D-Phe_4OPh

>  <FULL_NAME>  (1414) 
(R)-2-amino-3-(4-phenoxyphenyl)propanoic acid

>  <IUPAC_CONDENSED>  (1414) 
D-Tyr(Ph)

>  <IUPAC>  (1414) 
(2R)-2-amino-3-(4-phenoxyphenyl)propanoic acid

>  <TYPE>  (1414) 
Backbone

>  <CLASS>  (1414) 
alpha

>  <ANALOG>  (1414) 
Tyr

>  <MOL_WT>  (1414) 
257.289

>  <LOGP>  (1414) 
2.4333

>  <TPSA>  (1414) 
72.55

>  <POPULARITY>  (1414) 
7.7

>  <PROTECTED>  (1414) 
TRUE

>  <SMILES>  (1414) 
N[C@H](Cc2(ccc(Oc1(ccccc1))cc2))C(=O)O

>  <INCHIKEY>  (1414) 
DRDNRDDAAFSVNM-CQSZACIVSA-N

$$$$
D-Nle_pentyl
     RDKit          2D

 14 13  0  0  0  0  0  0  0  0999 V2000
    3.8076    1.8684    0.0000 N   0  0  0  0  0  0  0  0  0  0  0  0
    3.8050    0.3684    0.0000 C   0  0  0  0  0  0  0  0  0  0  0  0
    2.5046   -0.3794    0.0000 C   0  0  0  0  0  0  0  0  0  0  0  0
    1.2069    0.3729    0.0000 C   0  0  0  0  0  0  0  0  0  0  0  0
   -0.0934   -0.3748    0.0000 C   0  0  0  0  0  0  0  0  0  0  0  0
   -1.3912    0.3774    0.0000 C   0  0  0  0  0  0  0  0  0  0  0  0
   -2.6915   -0.3703    0.0000 C   0  0  0  0  0  0  0  0  0  0  0  0
   -3.9892    0.3819    0.0000 C   0  0  0  0  0  0  0  0  0  0  0  0
   -5.2896   -0.3658    0.0000 C   0  0  0  0  0  0  0  0  0  0  0  0
   -6.5873    0.3865    0.0000 C   0  0  0  0  0  0  0  0  0  0  0  0
   -7.8877   -0.3613    0.0000 C   0  0  0  0  0  0  0  0  0  0  0  0
    5.1027   -0.3839    0.0000 C   0  0  0  0  0  0  0  0  0  0  0  0
    5.1001   -1.8839    0.0000 O   0  0  0  0  0  0  0  0  0  0  0  0
    6.4030    0.3638    0.0000 O   0  0  0  0  0  0  0  0  0  0  0  0
  2  1  1  1
  2  3  1  0
  3  4  1  0
  4  5  1  0
  5  6  1  0
  6  7  1  0
  7  8  1  0
  8  9  1  0
  9 10  1  0
 10 11  1  0
  2 12  1  0
 12 13  2  0
 12 14  1  0
M  END
>  <rName>  (1415) 
D-Nle_pentyl

>  <PQ_SYMBOL>  (1415) 
D-Nle_pentyl

>  <FULL_NAME>  (1415) 
(R)-2-aminoundecanoic acid

>  <IUPAC_CONDENSED>  (1415) 
D-Nle(pentyl)

>  <IUPAC>  (1415) 
(2R)-2-aminoundecanoic acid

>  <TYPE>  (1415) 
Backbone

>  <CLASS>  (1415) 
alpha

>  <ANALOG>  (1415) 
X

>  <MOL_WT>  (1415) 
201.31

>  <LOGP>  (1415) 
2.5390000000000006

>  <TPSA>  (1415) 
63.32000000000001

>  <POPULARITY>  (1415) 
8.5

>  <PROTECTED>  (1415) 
TRUE

>  <SMILES>  (1415) 
N[C@H](CCCCCCCCC)C(=O)O

>  <INCHIKEY>  (1415) 
HASUJDLTAYUWCO-SNVBAGLBSA-N

$$$$
D-Nle_hexyl
     RDKit          2D

 15 14  0  0  0  0  0  0  0  0999 V2000
    4.4025   -1.8836    0.0000 N   0  0  0  0  0  0  0  0  0  0  0  0
    4.4139   -0.3836    0.0000 C   0  0  0  0  0  0  0  0  0  0  0  0
    3.1206    0.3763    0.0000 C   0  0  0  0  0  0  0  0  0  0  0  0
    1.8159   -0.3638    0.0000 C   0  0  0  0  0  0  0  0  0  0  0  0
    0.5226    0.3960    0.0000 C   0  0  0  0  0  0  0  0  0  0  0  0
   -0.7821   -0.3441    0.0000 C   0  0  0  0  0  0  0  0  0  0  0  0
   -2.0754    0.4158    0.0000 C   0  0  0  0  0  0  0  0  0  0  0  0
   -3.3801   -0.3243    0.0000 C   0  0  0  0  0  0  0  0  0  0  0  0
   -4.6734    0.4356    0.0000 C   0  0  0  0  0  0  0  0  0  0  0  0
   -5.9781   -0.3045    0.0000 C   0  0  0  0  0  0  0  0  0  0  0  0
   -7.2714    0.4554    0.0000 C   0  0  0  0  0  0  0  0  0  0  0  0
   -8.5761   -0.2847    0.0000 C   0  0  0  0  0  0  0  0  0  0  0  0
    5.7186    0.3565    0.0000 C   0  0  0  0  0  0  0  0  0  0  0  0
    5.7301    1.8564    0.0000 O   0  0  0  0  0  0  0  0  0  0  0  0
    7.0119   -0.4034    0.0000 O   0  0  0  0  0  0  0  0  0  0  0  0
  2  1  1  6
  2  3  1  0
  3  4  1  0
  4  5  1  0
  5  6  1  0
  6  7  1  0
  7  8  1  0
  8  9  1  0
  9 10  1  0
 10 11  1  0
 11 12  1  0
  2 13  1  0
 13 14  2  0
 13 15  1  0
M  END
>  <rName>  (1416) 
D-Nle_hexyl

>  <PQ_SYMBOL>  (1416) 
D-Nle_hexyl

>  <FULL_NAME>  (1416) 
(R)-2-aminododecanoic acid

>  <IUPAC_CONDENSED>  (1416) 
D-Nle(hexyl)

>  <IUPAC>  (1416) 
(2R)-2-aminododecanoic acid

>  <TYPE>  (1416) 
Backbone

>  <CLASS>  (1416) 
alpha

>  <ANALOG>  (1416) 
X

>  <MOL_WT>  (1416) 
215.337

>  <LOGP>  (1416) 
2.929100000000001

>  <TPSA>  (1416) 
63.32000000000001

>  <POPULARITY>  (1416) 
8.2

>  <PROTECTED>  (1416) 
TRUE

>  <SMILES>  (1416) 
N[C@H](CCCCCCCCCC)C(=O)O

>  <INCHIKEY>  (1416) 
QUBNFZFTFXTLKH-LLVKDONJSA-N

$$$$
D-Nle_octyl
     RDKit          2D

 17 16  0  0  0  0  0  0  0  0999 V2000
    5.6454   -1.8810    0.0000 N   0  0  0  0  0  0  0  0  0  0  0  0
    5.6528   -0.3810    0.0000 C   0  0  0  0  0  0  0  0  0  0  0  0
    4.3575    0.3754    0.0000 C   0  0  0  0  0  0  0  0  0  0  0  0
    3.0548   -0.3681    0.0000 C   0  0  0  0  0  0  0  0  0  0  0  0
    1.7595    0.3883    0.0000 C   0  0  0  0  0  0  0  0  0  0  0  0
    0.4567   -0.3552    0.0000 C   0  0  0  0  0  0  0  0  0  0  0  0
   -0.8386    0.4012    0.0000 C   0  0  0  0  0  0  0  0  0  0  0  0
   -2.1413   -0.3423    0.0000 C   0  0  0  0  0  0  0  0  0  0  0  0
   -3.4366    0.4141    0.0000 C   0  0  0  0  0  0  0  0  0  0  0  0
   -4.7394   -0.3294    0.0000 C   0  0  0  0  0  0  0  0  0  0  0  0
   -6.0347    0.4270    0.0000 C   0  0  0  0  0  0  0  0  0  0  0  0
   -7.3374   -0.3165    0.0000 C   0  0  0  0  0  0  0  0  0  0  0  0
   -8.6327    0.4399    0.0000 C   0  0  0  0  0  0  0  0  0  0  0  0
   -9.9355   -0.3036    0.0000 C   0  0  0  0  0  0  0  0  0  0  0  0
    6.9556    0.3625    0.0000 C   0  0  0  0  0  0  0  0  0  0  0  0
    6.9630    1.8625    0.0000 O   0  0  0  0  0  0  0  0  0  0  0  0
    8.2509   -0.3939    0.0000 O   0  0  0  0  0  0  0  0  0  0  0  0
  2  1  1  6
  2  3  1  0
  3  4  1  0
  4  5  1  0
  5  6  1  0
  6  7  1  0
  7  8  1  0
  8  9  1  0
  9 10  1  0
 10 11  1  0
 11 12  1  0
 12 13  1  0
 13 14  1  0
  2 15  1  0
 15 16  2  0
 15 17  1  0
M  END
>  <rName>  (1417) 
D-Nle_octyl

>  <PQ_SYMBOL>  (1417) 
D-Nle_octyl

>  <FULL_NAME>  (1417) 
(R)-2-aminotetradecanoic acid

>  <IUPAC_CONDENSED>  (1417) 
D-Nle(octyl)

>  <IUPAC>  (1417) 
(2R)-2-aminotetradecanoic acid

>  <TYPE>  (1417) 
Backbone

>  <CLASS>  (1417) 
alpha

>  <ANALOG>  (1417) 
X

>  <MOL_WT>  (1417) 
243.39099999999996

>  <LOGP>  (1417) 
3.7093000000000025

>  <TPSA>  (1417) 
63.32000000000001

>  <POPULARITY>  (1417) 
7.7

>  <PROTECTED>  (1417) 
TRUE

>  <SMILES>  (1417) 
N[C@H](CCCCCCCCCCCC)C(=O)O

>  <INCHIKEY>  (1417) 
BVXKPGXJOLWHFI-CYBMUJFWSA-N

$$$$
D-Phe_2F_5Br
     RDKit          2D

 14 14  0  0  0  0  0  0  0  0999 V2000
   -1.4552    1.7882    0.0000 N   0  0  0  0  0  0  0  0  0  0  0  0
   -1.9325    0.3661    0.0000 C   0  0  0  0  0  0  0  0  0  0  0  0
   -0.9397   -0.7583    0.0000 C   0  0  0  0  0  0  0  0  0  0  0  0
    0.5305   -0.4606    0.0000 C   0  0  0  0  0  0  0  0  0  0  0  0
    1.0078    0.9614    0.0000 C   0  0  0  0  0  0  0  0  0  0  0  0
    2.4780    1.2591    0.0000 C   0  0  0  0  0  0  0  0  0  0  0  0
    2.9553    2.6811    0.0000 Br  0  0  0  0  0  0  0  0  0  0  0  0
    3.4709    0.1347    0.0000 C   0  0  0  0  0  0  0  0  0  0  0  0
    2.9935   -1.2874    0.0000 C   0  0  0  0  0  0  0  0  0  0  0  0
    1.5234   -1.5850    0.0000 C   0  0  0  0  0  0  0  0  0  0  0  0
    1.0461   -3.0070    0.0000 F   0  0  0  0  0  0  0  0  0  0  0  0
   -3.4027    0.0685    0.0000 C   0  0  0  0  0  0  0  0  0  0  0  0
   -3.8800   -1.3536    0.0000 O   0  0  0  0  0  0  0  0  0  0  0  0
   -4.3955    1.1929    0.0000 O   0  0  0  0  0  0  0  0  0  0  0  0
  2  1  1  6
  2  3  1  0
  3  4  1  0
  4  5  1  0
  5  6  2  0
  6  7  1  0
  6  8  1  0
  8  9  2  0
  9 10  1  0
 10 11  1  0
  2 12  1  0
 12 13  2  0
 12 14  1  0
 10  4  2  0
M  END
>  <rName>  (1418) 
D-Phe_2F_5Br

>  <PQ_SYMBOL>  (1418) 
D-Phe_2F_5Br

>  <FULL_NAME>  (1418) 
(R)-2-amino-3-(5-bromo-2-fluorophenyl)propanoic acid

>  <IUPAC_CONDENSED>  (1418) 
D-Phe(2-F,5-Br)

>  <IUPAC>  (1418) 
(2R)-2-amino-3-(5-bromo-2-fluorophenyl)propanoic acid

>  <TYPE>  (1418) 
Backbone

>  <CLASS>  (1418) 
alpha

>  <ANALOG>  (1418) 
Phe

>  <MOL_WT>  (1418) 
262.078

>  <LOGP>  (1418) 
1.5426000000000002

>  <TPSA>  (1418) 
63.32000000000001

>  <POPULARITY>  (1418) 
3.4

>  <PROTECTED>  (1418) 
TRUE

>  <SMILES>  (1418) 
N[C@H](Cc1(cc(Br)ccc1F))C(=O)O

>  <INCHIKEY>  (1418) 
BYTRLZMUWHKJRH-MRVPVSSYSA-N

$$$$
D-Phe_3Br_4F
     RDKit          2D

 14 14  0  0  0  0  0  0  0  0999 V2000
   -2.0094    1.6916    0.0000 N   0  0  0  0  0  0  0  0  0  0  0  0
   -2.3243    0.2250    0.0000 C   0  0  0  0  0  0  0  0  0  0  0  0
   -1.2116   -0.7809    0.0000 C   0  0  0  0  0  0  0  0  0  0  0  0
    0.2159   -0.3203    0.0000 C   0  0  0  0  0  0  0  0  0  0  0  0
    0.5308    1.1463    0.0000 C   0  0  0  0  0  0  0  0  0  0  0  0
    1.9583    1.6069    0.0000 C   0  0  0  0  0  0  0  0  0  0  0  0
    3.0710    0.6009    0.0000 C   0  0  0  0  0  0  0  0  0  0  0  0
    4.4985    1.0615    0.0000 F   0  0  0  0  0  0  0  0  0  0  0  0
    2.7561   -0.8657    0.0000 C   0  0  0  0  0  0  0  0  0  0  0  0
    3.8688   -1.8716    0.0000 Br  0  0  0  0  0  0  0  0  0  0  0  0
    1.3286   -1.3263    0.0000 C   0  0  0  0  0  0  0  0  0  0  0  0
   -3.7518   -0.2356    0.0000 C   0  0  0  0  0  0  0  0  0  0  0  0
   -4.0666   -1.7022    0.0000 O   0  0  0  0  0  0  0  0  0  0  0  0
   -4.8644    0.7704    0.0000 O   0  0  0  0  0  0  0  0  0  0  0  0
  2  1  1  6
  2  3  1  0
  3  4  1  0
  4  5  1  0
  5  6  2  0
  6  7  1  0
  7  8  1  0
  7  9  2  0
  9 10  1  0
  9 11  1  0
  2 12  1  0
 12 13  2  0
 12 14  1  0
 11  4  2  0
M  END
>  <rName>  (1419) 
D-Phe_3Br_4F

>  <PQ_SYMBOL>  (1419) 
D-Phe_3Br_4F

>  <FULL_NAME>  (1419) 
(R)-2-amino-3-(3-bromo-4-fluorophenyl)propanoic acid

>  <IUPAC_CONDENSED>  (1419) 
D-Phe(3-Br,4-F)

>  <IUPAC>  (1419) 
(2R)-2-amino-3-(3-bromo-4-fluorophenyl)propanoic acid

>  <TYPE>  (1419) 
Backbone

>  <CLASS>  (1419) 
alpha

>  <ANALOG>  (1419) 
Phe

>  <MOL_WT>  (1419) 
262.078

>  <LOGP>  (1419) 
1.5426000000000002

>  <TPSA>  (1419) 
63.32000000000001

>  <POPULARITY>  (1419) 
3

>  <PROTECTED>  (1419) 
TRUE

>  <SMILES>  (1419) 
N[C@H](Cc1(ccc(F)c(Br)c1))C(=O)O

>  <INCHIKEY>  (1419) 
FZVFOEFLGCXXCP-MRVPVSSYSA-N

$$$$
Phe_3Br_4F
     RDKit          2D

 14 14  0  0  0  0  0  0  0  0999 V2000
   -2.0094    1.6916    0.0000 N   0  0  0  0  0  0  0  0  0  0  0  0
   -2.3243    0.2250    0.0000 C   0  0  0  0  0  0  0  0  0  0  0  0
   -1.2116   -0.7809    0.0000 C   0  0  0  0  0  0  0  0  0  0  0  0
    0.2159   -0.3203    0.0000 C   0  0  0  0  0  0  0  0  0  0  0  0
    0.5308    1.1463    0.0000 C   0  0  0  0  0  0  0  0  0  0  0  0
    1.9583    1.6069    0.0000 C   0  0  0  0  0  0  0  0  0  0  0  0
    3.0710    0.6009    0.0000 C   0  0  0  0  0  0  0  0  0  0  0  0
    4.4985    1.0615    0.0000 F   0  0  0  0  0  0  0  0  0  0  0  0
    2.7561   -0.8657    0.0000 C   0  0  0  0  0  0  0  0  0  0  0  0
    3.8688   -1.8716    0.0000 Br  0  0  0  0  0  0  0  0  0  0  0  0
    1.3286   -1.3263    0.0000 C   0  0  0  0  0  0  0  0  0  0  0  0
   -3.7518   -0.2356    0.0000 C   0  0  0  0  0  0  0  0  0  0  0  0
   -4.0666   -1.7022    0.0000 O   0  0  0  0  0  0  0  0  0  0  0  0
   -4.8644    0.7704    0.0000 O   0  0  0  0  0  0  0  0  0  0  0  0
  2  1  1  1
  2  3  1  0
  3  4  1  0
  4  5  1  0
  5  6  2  0
  6  7  1  0
  7  8  1  0
  7  9  2  0
  9 10  1  0
  9 11  1  0
  2 12  1  0
 12 13  2  0
 12 14  1  0
 11  4  2  0
M  END
>  <rName>  (1420) 
Phe_3Br_4F

>  <PQ_SYMBOL>  (1420) 
Phe_3Br_4F

>  <FULL_NAME>  (1420) 
(S)-2-amino-3-(3-bromo-4-fluorophenyl)propanoic acid

>  <IUPAC_CONDENSED>  (1420) 
Phe(3-Br,4-F)

>  <IUPAC>  (1420) 
(2S)-2-amino-3-(3-bromo-4-fluorophenyl)propanoic acid

>  <TYPE>  (1420) 
Backbone

>  <CLASS>  (1420) 
alpha

>  <ANALOG>  (1420) 
Phe

>  <MOL_WT>  (1420) 
262.078

>  <LOGP>  (1420) 
1.5426000000000002

>  <TPSA>  (1420) 
63.32000000000001

>  <POPULARITY>  (1420) 
4.3

>  <PROTECTED>  (1420) 
TRUE

>  <SMILES>  (1420) 
N[C@@H](Cc1(ccc(F)c(Br)c1))C(=O)O

>  <INCHIKEY>  (1420) 
FZVFOEFLGCXXCP-QMMMGPOBSA-N

$$$$
Phe_34_5triOMe
     RDKit          2D

 18 18  0  0  0  0  0  0  0  0999 V2000
   -2.7773    1.6378    0.0000 N   0  0  0  0  0  0  0  0  0  0  0  0
   -3.1600    0.1874    0.0000 C   0  0  0  0  0  0  0  0  0  0  0  0
   -2.0953   -0.8692    0.0000 C   0  0  0  0  0  0  0  0  0  0  0  0
   -0.6479   -0.4754    0.0000 C   0  0  0  0  0  0  0  0  0  0  0  0
   -0.2652    0.9749    0.0000 C   0  0  0  0  0  0  0  0  0  0  0  0
    1.1822    1.3687    0.0000 C   0  0  0  0  0  0  0  0  0  0  0  0
    1.5649    2.8190    0.0000 O   0  0  0  0  0  0  0  0  0  0  0  0
    3.0123    3.2128    0.0000 C   0  0  0  0  0  0  0  0  0  0  0  0
    2.2469    0.3121    0.0000 C   0  0  0  0  0  0  0  0  0  0  0  0
    3.6943    0.7058    0.0000 O   0  0  0  0  0  0  0  0  0  0  0  0
    4.7590   -0.3508    0.0000 C   0  0  0  0  0  0  0  0  0  0  0  0
    1.8642   -1.1383    0.0000 C   0  0  0  0  0  0  0  0  0  0  0  0
    2.9289   -2.1949    0.0000 O   0  0  0  0  0  0  0  0  0  0  0  0
    2.5462   -3.6453    0.0000 C   0  0  0  0  0  0  0  0  0  0  0  0
    0.4168   -1.5320    0.0000 C   0  0  0  0  0  0  0  0  0  0  0  0
   -4.6074   -0.2063    0.0000 C   0  0  0  0  0  0  0  0  0  0  0  0
   -4.9901   -1.6567    0.0000 O   0  0  0  0  0  0  0  0  0  0  0  0
   -5.6721    0.8503    0.0000 O   0  0  0  0  0  0  0  0  0  0  0  0
  2  1  1  1
  2  3  1  0
  3  4  1  0
  4  5  2  0
  5  6  1  0
  6  7  1  0
  7  8  1  0
  6  9  2  0
  9 10  1  0
 10 11  1  0
  9 12  1  0
 12 13  1  0
 13 14  1  0
 12 15  2  0
  2 16  1  0
 16 17  2  0
 16 18  1  0
 15  4  1  0
M  END
>  <rName>  (1421) 
Phe_34_5triOMe

>  <PQ_SYMBOL>  (1421) 
Phe_34_5triOMe

>  <FULL_NAME>  (1421) 
(S)-2-amino-3-(3,4,5-trimethoxyphenyl)propanoic acid

>  <IUPAC_CONDENSED>  (1421) 
Phe(3,4,5-triOMe)

>  <IUPAC>  (1421) 
(2S)-2-amino-3-(3,4,5-trimethoxyphenyl)propanoic acid

>  <TYPE>  (1421) 
Backbone

>  <CLASS>  (1421) 
alpha

>  <ANALOG>  (1421) 
Tyr

>  <MOL_WT>  (1421) 
255.26999999999995

>  <LOGP>  (1421) 
0.6667999999999998

>  <TPSA>  (1421) 
91.01

>  <POPULARITY>  (1421) 
5.5

>  <PROTECTED>  (1421) 
TRUE

>  <SMILES>  (1421) 
N[C@@H](Cc1(cc(OC)c(OC)c(OC)c1))C(=O)O

>  <INCHIKEY>  (1421) 
AYPXBNMIJGVJDE-QMMMGPOBSA-N

$$$$
Phe_3OEt
     RDKit          2D

 15 15  0  0  0  0  0  0  0  0999 V2000
   -2.8551    1.4556    0.0000 N   0  0  0  0  0  0  0  0  0  0  0  0
   -2.6961   -0.0360    0.0000 C   0  0  0  0  0  0  0  0  0  0  0  0
   -1.3248   -0.6441    0.0000 C   0  0  0  0  0  0  0  0  0  0  0  0
   -0.1126    0.2394    0.0000 C   0  0  0  0  0  0  0  0  0  0  0  0
   -0.2716    1.7310    0.0000 C   0  0  0  0  0  0  0  0  0  0  0  0
    0.9406    2.6144    0.0000 C   0  0  0  0  0  0  0  0  0  0  0  0
    2.3118    2.0064    0.0000 C   0  0  0  0  0  0  0  0  0  0  0  0
    2.4708    0.5148    0.0000 C   0  0  0  0  0  0  0  0  0  0  0  0
    3.8420   -0.0933    0.0000 O   0  0  0  0  0  0  0  0  0  0  0  0
    4.0010   -1.5848    0.0000 C   0  0  0  0  0  0  0  0  0  0  0  0
    5.3723   -2.1929    0.0000 C   0  0  0  0  0  0  0  0  0  0  0  0
    1.2586   -0.3687    0.0000 C   0  0  0  0  0  0  0  0  0  0  0  0
   -3.9083   -0.9195    0.0000 C   0  0  0  0  0  0  0  0  0  0  0  0
   -3.7493   -2.4110    0.0000 O   0  0  0  0  0  0  0  0  0  0  0  0
   -5.2795   -0.3114    0.0000 O   0  0  0  0  0  0  0  0  0  0  0  0
  2  1  1  1
  2  3  1  0
  3  4  1  0
  4  5  1  0
  5  6  2  0
  6  7  1  0
  7  8  2  0
  8  9  1  0
  9 10  1  0
 10 11  1  0
  8 12  1  0
  2 13  1  0
 13 14  2  0
 13 15  1  0
 12  4  2  0
M  END
>  <rName>  (1422) 
Phe_3OEt

>  <PQ_SYMBOL>  (1422) 
Phe_3OEt

>  <FULL_NAME>  (1422) 
(S)-2-amino-3-(3-ethoxyphenyl)propanoic acid

>  <IUPAC_CONDENSED>  (1422) 
Phe(3-OEt)

>  <IUPAC>  (1422) 
(2S)-2-amino-3-(3-ethoxyphenyl)propanoic acid

>  <TYPE>  (1422) 
Backbone

>  <CLASS>  (1422) 
alpha

>  <ANALOG>  (1422) 
Tyr

>  <MOL_WT>  (1422) 
209.24499999999995

>  <LOGP>  (1422) 
1.0396999999999998

>  <TPSA>  (1422) 
72.55

>  <POPULARITY>  (1422) 
7.1

>  <PROTECTED>  (1422) 
TRUE

>  <SMILES>  (1422) 
N[C@@H](Cc1(cccc(OCC)c1))C(=O)O

>  <INCHIKEY>  (1422) 
SEYVYCRBBASCRX-JTQLQIEISA-N

$$$$
Phe_4Ph_4Cl
     RDKit          2D

 19 20  0  0  0  0  0  0  0  0999 V2000
   -3.6454    1.7385    0.0000 N   0  0  0  0  0  0  0  0  0  0  0  0
   -4.2241    0.3546    0.0000 C   0  0  0  0  0  0  0  0  0  0  0  0
   -3.3150   -0.8385    0.0000 C   0  0  0  0  0  0  0  0  0  0  0  0
   -1.8272   -0.6478    0.0000 C   0  0  0  0  0  0  0  0  0  0  0  0
   -1.2485    0.7361    0.0000 C   0  0  0  0  0  0  0  0  0  0  0  0
    0.2394    0.9268    0.0000 C   0  0  0  0  0  0  0  0  0  0  0  0
    1.1485   -0.2664    0.0000 C   0  0  0  0  0  0  0  0  0  0  0  0
    0.5697   -1.6502    0.0000 C   0  0  0  0  0  0  0  0  0  0  0  0
   -0.9181   -1.8409    0.0000 C   0  0  0  0  0  0  0  0  0  0  0  0
    2.6363   -0.0757    0.0000 C   0  0  0  0  0  0  0  0  0  0  0  0
    3.5454   -1.2688    0.0000 C   0  0  0  0  0  0  0  0  0  0  0  0
    5.0332   -1.0781    0.0000 C   0  0  0  0  0  0  0  0  0  0  0  0
    5.6119    0.3058    0.0000 C   0  0  0  0  0  0  0  0  0  0  0  0
    7.0998    0.4965    0.0000 Cl  0  0  0  0  0  0  0  0  0  0  0  0
    4.7029    1.4989    0.0000 C   0  0  0  0  0  0  0  0  0  0  0  0
    3.2150    1.3082    0.0000 C   0  0  0  0  0  0  0  0  0  0  0  0
   -5.7119    0.1639    0.0000 C   0  0  0  0  0  0  0  0  0  0  0  0
   -6.2907   -1.2199    0.0000 O   0  0  0  0  0  0  0  0  0  0  0  0
   -6.6210    1.3571    0.0000 O   0  0  0  0  0  0  0  0  0  0  0  0
  2  1  1  1
  2  3  1  0
  3  4  1  0
  4  5  1  0
  5  6  2  0
  6  7  1  0
  7  8  2  0
  8  9  1  0
  7 10  1  0
 10 11  1  0
 11 12  2  0
 12 13  1  0
 13 14  1  0
 13 15  2  0
 15 16  1  0
  2 17  1  0
 17 18  2  0
 17 19  1  0
  9  4  2  0
 16 10  2  0
M  END
>  <rName>  (1423) 
Phe_4Ph_4Cl

>  <PQ_SYMBOL>  (1423) 
Phe_4Ph_4Cl

>  <FULL_NAME>  (1423) 
(S)-2-amino-3-(4'-chloro-[1,1'-biphenyl]-4-yl)propanoic acid

>  <IUPAC_CONDENSED>  (1423) 
Phe(4-Ph(4-Cl))

>  <IUPAC>  (1423) 
(2S)-2-amino-3-(4-(4-chlorophenyl)phenyl)propanoic acid

>  <TYPE>  (1423) 
Backbone

>  <CLASS>  (1423) 
alpha

>  <ANALOG>  (1423) 
Phe

>  <MOL_WT>  (1423) 
275.735

>  <LOGP>  (1423) 
2.961400000000001

>  <TPSA>  (1423) 
63.32000000000001

>  <POPULARITY>  (1423) 
4.9

>  <PROTECTED>  (1423) 
TRUE

>  <SMILES>  (1423) 
N[C@@H](Cc1(ccc(cc1)c2(ccc(Cl)cc2)))C(=O)O

>  <INCHIKEY>  (1423) 
YNAJOMWNXOKORZ-AWEZNQCLSA-N

$$$$
NMe-Ala_tBu
     RDKit          2D

 11 10  0  0  0  0  0  0  0  0999 V2000
   -1.9642    1.4720    0.0000 N   0  0  0  0  0  0  0  0  0  0  0  0
   -3.3434    0.8823    0.0000 C   0  0  0  0  0  0  0  0  0  0  0  0
   -0.7638    0.5725    0.0000 C   0  0  0  0  0  0  0  0  0  0  0  0
    0.6154    1.1622    0.0000 C   0  0  0  0  0  0  0  0  0  0  0  0
    1.8157    0.2626    0.0000 C   0  0  0  0  0  0  0  0  0  0  0  0
    2.7153    1.4629    0.0000 C   0  0  0  0  0  0  0  0  0  0  0  0
    0.9161   -0.9377    0.0000 C   0  0  0  0  0  0  0  0  0  0  0  0
    3.0160   -0.6370    0.0000 C   0  0  0  0  0  0  0  0  0  0  0  0
   -0.9427   -0.9168    0.0000 C   0  0  0  0  0  0  0  0  0  0  0  0
   -2.3220   -1.5065    0.0000 O   0  0  0  0  0  0  0  0  0  0  0  0
    0.2576   -1.8164    0.0000 O   0  0  0  0  0  0  0  0  0  0  0  0
  1  2  1  0
  1  3  1  0
  3  4  1  1
  4  5  1  0
  5  6  1  0
  5  7  1  0
  5  8  1  0
  3  9  1  0
  9 10  2  0
  9 11  1  0
M  END
>  <rName>  (1424) 
NMe-Ala_tBu

>  <PQ_SYMBOL>  (1424) 
NMe-Ala_tBu

>  <FULL_NAME>  (1424) 
(S)-4,4-dimethyl-2-(methylamino)pentanoic acid

>  <IUPAC_CONDENSED>  (1424) 
Me-Ala(tBu)

>  <IUPAC>  (1424) 
(2S)-4,4-dimethyl-2-(methylamino)pentanoic acid

>  <TYPE>  (1424) 
Backbone

>  <CLASS>  (1424) 
alpha

>  <ANALOG>  (1424) 
Leu

>  <MOL_WT>  (1424) 
159.22899999999998

>  <LOGP>  (1424) 
1.0952

>  <TPSA>  (1424) 
49.33

>  <POPULARITY>  (1424) 
11.3

>  <PROTECTED>  (1424) 
TRUE

>  <SMILES>  (1424) 
N(C)[C@@H](CC(C)(C)C)C(=O)O

>  <INCHIKEY>  (1424) 
XKQSRLFMHOHZQR-LURJTMIESA-N

$$$$
NMe-D-Ser_Me
     RDKit          2D

  9  8  0  0  0  0  0  0  0  0999 V2000
   -1.4625    1.4907    0.0000 N   0  0  0  0  0  0  0  0  0  0  0  0
   -2.8857    1.0168    0.0000 C   0  0  0  0  0  0  0  0  0  0  0  0
   -0.3405    0.4951    0.0000 C   0  0  0  0  0  0  0  0  0  0  0  0
    1.0826    0.9690    0.0000 C   0  0  0  0  0  0  0  0  0  0  0  0
    2.2046   -0.0266    0.0000 O   0  0  0  0  0  0  0  0  0  0  0  0
    3.6278    0.4473    0.0000 C   0  0  0  0  0  0  0  0  0  0  0  0
   -0.6417   -0.9743    0.0000 C   0  0  0  0  0  0  0  0  0  0  0  0
   -2.0649   -1.4482    0.0000 O   0  0  0  0  0  0  0  0  0  0  0  0
    0.4803   -1.9699    0.0000 O   0  0  0  0  0  0  0  0  0  0  0  0
  1  2  1  0
  1  3  1  0
  3  4  1  6
  4  5  1  0
  5  6  1  0
  3  7  1  0
  7  8  2  0
  7  9  1  0
M  END
>  <rName>  (1425) 
NMe-D-Ser_Me

>  <PQ_SYMBOL>  (1425) 
NMe-D-Ser_Me

>  <FULL_NAME>  (1425) 
N,O-dimethyl-D-serine

>  <IUPAC_CONDENSED>  (1425) 
Me-D-Ser(Me)

>  <IUPAC>  (1425) 
(2R)-3-methoxy-2-(methylamino)propanoic acid

>  <TYPE>  (1425) 
Backbone

>  <CLASS>  (1425) 
alpha

>  <ANALOG>  (1425) 
Ser

>  <MOL_WT>  (1425) 
133.147

>  <LOGP>  (1425) 
-0.6946000000000001

>  <TPSA>  (1425) 
58.56

>  <POPULARITY>  (1425) 
10.9

>  <PROTECTED>  (1425) 
TRUE

>  <SMILES>  (1425) 
N(C)[C@H](COC)C(=O)O

>  <INCHIKEY>  (1425) 
AKTYKKADZQIESO-SCSAIBSYSA-N

$$$$
bAla_3RMe_Ph
     RDKit          2D

 14 14  0  0  0  0  0  0  0  0999 V2000
   -2.1732   -1.6585    0.0000 N   0  0  0  0  0  0  0  0  0  0  0  0
   -1.8487   -0.1940    0.0000 C   0  0  0  0  0  0  0  0  0  0  0  0
   -0.4182    0.2573    0.0000 C   0  0  0  0  0  0  0  0  0  0  0  0
    0.6879   -0.7560    0.0000 S   0  0  0  0  0  0  0  0  0  0  0  0
    2.1184   -0.3047    0.0000 C   0  0  0  0  0  0  0  0  0  0  0  0
    2.4428    1.1598    0.0000 C   0  0  0  0  0  0  0  0  0  0  0  0
    3.8734    1.6110    0.0000 C   0  0  0  0  0  0  0  0  0  0  0  0
    4.9794    0.5978    0.0000 C   0  0  0  0  0  0  0  0  0  0  0  0
    4.6549   -0.8667    0.0000 C   0  0  0  0  0  0  0  0  0  0  0  0
    3.2244   -1.3180    0.0000 C   0  0  0  0  0  0  0  0  0  0  0  0
   -2.9548    0.8193    0.0000 C   0  0  0  0  0  0  0  0  0  0  0  0
   -4.3853    0.3680    0.0000 C   0  0  0  0  0  0  0  0  0  0  0  0
   -4.7097   -1.0965    0.0000 O   0  0  0  0  0  0  0  0  0  0  0  0
   -5.4913    1.3812    0.0000 O   0  0  0  0  0  0  0  0  0  0  0  0
  2  1  1  6
  2  3  1  0
  3  4  1  0
  4  5  1  0
  5  6  2  0
  6  7  1  0
  7  8  2  0
  8  9  1  0
  9 10  2  0
  2 11  1  0
 11 12  1  0
 12 13  2  0
 12 14  1  0
 10  5  1  0
M  END
>  <rName>  (1426) 
bAla_3RMe_Ph

>  <PQ_SYMBOL>  (1426) 
bAla_3RMe_Ph

>  <FULL_NAME>  (1426) 
(R)-3-amino-4-(phenylthio)butanoic acid

>  <IUPAC_CONDENSED>  (1426) 
bAla(3R-Me,Ph)

>  <IUPAC>  (1426) 
(3R)-3-amino-4-(phenylsulfanyl)butanoic acid

>  <TYPE>  (1426) 
Backbone

>  <CLASS>  (1426) 
beta

>  <ANALOG>  (1426) 
Cys

>  <MOL_WT>  (1426) 
211.28599999999997

>  <LOGP>  (1426) 
1.5807

>  <TPSA>  (1426) 
63.32000000000001

>  <POPULARITY>  (1426) 
5.5

>  <PROTECTED>  (1426) 
TRUE

>  <SMILES>  (1426) 
N[C@@H](CSc1(ccccc1))CC(=O)O

>  <INCHIKEY>  (1426) 
BAFKFCWMJAHLQJ-MRVPVSSYSA-N

$$$$
Phe_3OMe_4Cl
     RDKit          2D

 15 15  0  0  0  0  0  0  0  0999 V2000
   -2.4309    1.6735    0.0000 N   0  0  0  0  0  0  0  0  0  0  0  0
   -2.5936    0.1823    0.0000 C   0  0  0  0  0  0  0  0  0  0  0  0
   -1.3836   -0.7041    0.0000 C   0  0  0  0  0  0  0  0  0  0  0  0
   -0.0108   -0.0994    0.0000 C   0  0  0  0  0  0  0  0  0  0  0  0
    0.1518    1.3917    0.0000 C   0  0  0  0  0  0  0  0  0  0  0  0
    1.5245    1.9964    0.0000 C   0  0  0  0  0  0  0  0  0  0  0  0
    2.7346    1.1100    0.0000 C   0  0  0  0  0  0  0  0  0  0  0  0
    4.1073    1.7147    0.0000 Cl  0  0  0  0  0  0  0  0  0  0  0  0
    2.5719   -0.3812    0.0000 C   0  0  0  0  0  0  0  0  0  0  0  0
    3.7820   -1.2676    0.0000 O   0  0  0  0  0  0  0  0  0  0  0  0
    3.6193   -2.7588    0.0000 C   0  0  0  0  0  0  0  0  0  0  0  0
    1.1992   -0.9859    0.0000 C   0  0  0  0  0  0  0  0  0  0  0  0
   -3.9663   -0.4224    0.0000 C   0  0  0  0  0  0  0  0  0  0  0  0
   -4.1290   -1.9135    0.0000 O   0  0  0  0  0  0  0  0  0  0  0  0
   -5.1764    0.4641    0.0000 O   0  0  0  0  0  0  0  0  0  0  0  0
  2  1  1  1
  2  3  1  0
  3  4  1  0
  4  5  1  0
  5  6  2  0
  6  7  1  0
  7  8  1  0
  7  9  2  0
  9 10  1  0
 10 11  1  0
  9 12  1  0
  2 13  1  0
 13 14  2  0
 13 15  1  0
 12  4  2  0
M  END
>  <rName>  (1427) 
Phe_3OMe_4Cl

>  <PQ_SYMBOL>  (1427) 
Phe_3OMe_4Cl

>  <FULL_NAME>  (1427) 
(S)-2-amino-3-(4-chloro-3-methoxyphenyl)propanoic acid

>  <IUPAC_CONDENSED>  (1427) 
Phe(3-OMe,4-Cl)

>  <IUPAC>  (1427) 
(2S)-2-amino-3-(4-chloro-3-methoxyphenyl)propanoic acid

>  <TYPE>  (1427) 
Backbone

>  <CLASS>  (1427) 
alpha

>  <ANALOG>  (1427) 
Tyr

>  <MOL_WT>  (1427) 
229.66299999999998

>  <LOGP>  (1427) 
1.303

>  <TPSA>  (1427) 
72.55

>  <POPULARITY>  (1427) 
3.1

>  <PROTECTED>  (1427) 
TRUE

>  <SMILES>  (1427) 
N[C@@H](Cc1(ccc(Cl)c(OC)c1))C(=O)O

>  <INCHIKEY>  (1427) 
DVSYRLUHXAYEMH-QMMMGPOBSA-N

$$$$
Phe_2Me_4Cl
     RDKit          2D

 14 14  0  0  0  0  0  0  0  0999 V2000
   -1.7174    1.8436    0.0000 N   0  0  0  0  0  0  0  0  0  0  0  0
   -2.1036    0.3942    0.0000 C   0  0  0  0  0  0  0  0  0  0  0  0
   -1.0414   -0.6650    0.0000 C   0  0  0  0  0  0  0  0  0  0  0  0
    0.4069   -0.2747    0.0000 C   0  0  0  0  0  0  0  0  0  0  0  0
    0.7931    1.1747    0.0000 C   0  0  0  0  0  0  0  0  0  0  0  0
    2.2415    1.5649    0.0000 C   0  0  0  0  0  0  0  0  0  0  0  0
    3.3036    0.5057    0.0000 C   0  0  0  0  0  0  0  0  0  0  0  0
    4.7520    0.8960    0.0000 Cl  0  0  0  0  0  0  0  0  0  0  0  0
    2.9174   -0.9437    0.0000 C   0  0  0  0  0  0  0  0  0  0  0  0
    1.4691   -1.3339    0.0000 C   0  0  0  0  0  0  0  0  0  0  0  0
    1.0829   -2.7834    0.0000 C   0  0  0  0  0  0  0  0  0  0  0  0
   -3.5519    0.0039    0.0000 C   0  0  0  0  0  0  0  0  0  0  0  0
   -3.9381   -1.4455    0.0000 O   0  0  0  0  0  0  0  0  0  0  0  0
   -4.6140    1.0631    0.0000 O   0  0  0  0  0  0  0  0  0  0  0  0
  2  1  1  1
  2  3  1  0
  3  4  1  0
  4  5  1  0
  5  6  2  0
  6  7  1  0
  7  8  1  0
  7  9  2  0
  9 10  1  0
 10 11  1  0
  2 12  1  0
 12 13  2  0
 12 14  1  0
 10  4  2  0
M  END
>  <rName>  (1428) 
Phe_2Me_4Cl

>  <PQ_SYMBOL>  (1428) 
Phe_2Me_4Cl

>  <FULL_NAME>  (1428) 
(S)-2-amino-3-(4-chloro-2-methylphenyl)propanoic acid

>  <IUPAC_CONDENSED>  (1428) 
Phe(2-Me,4-Cl)

>  <IUPAC>  (1428) 
(2S)-2-amino-3-(4-chloro-2-methylphenyl)propanoic acid

>  <TYPE>  (1428) 
Backbone

>  <CLASS>  (1428) 
alpha

>  <ANALOG>  (1428) 
Phe

>  <MOL_WT>  (1428) 
213.664

>  <LOGP>  (1428) 
1.6028200000000001

>  <TPSA>  (1428) 
63.32000000000001

>  <POPULARITY>  (1428) 
3.5

>  <PROTECTED>  (1428) 
TRUE

>  <SMILES>  (1428) 
N[C@@H](Cc1(ccc(Cl)cc1C))C(=O)O

>  <INCHIKEY>  (1428) 
HOPMBDAOMZVFGR-VIFPVBQESA-N

$$$$
hPhe_3CF3
     RDKit          2D

 17 17  0  0  0  0  0  0  0  0999 V2000
   -3.6728   -2.1092    0.0000 N   0  0  0  0  0  0  0  0  0  0  0  0
   -3.6693   -0.6092    0.0000 C   0  0  0  0  0  0  0  0  0  0  0  0
   -2.3685    0.1378    0.0000 C   0  0  0  0  0  0  0  0  0  0  0  0
   -1.0712   -0.6152    0.0000 C   0  0  0  0  0  0  0  0  0  0  0  0
    0.2295    0.1318    0.0000 C   0  0  0  0  0  0  0  0  0  0  0  0
    0.2330    1.6318    0.0000 C   0  0  0  0  0  0  0  0  0  0  0  0
    1.5338    2.3788    0.0000 C   0  0  0  0  0  0  0  0  0  0  0  0
    2.8311    1.6258    0.0000 C   0  0  0  0  0  0  0  0  0  0  0  0
    2.8276    0.1258    0.0000 C   0  0  0  0  0  0  0  0  0  0  0  0
    1.5268   -0.6212    0.0000 C   0  0  0  0  0  0  0  0  0  0  0  0
    4.1249   -0.6272    0.0000 C   0  0  0  0  0  0  0  0  0  0  0  0
    5.4222   -1.3802    0.0000 F   0  0  0  0  0  0  0  0  0  0  0  0
    3.3719   -1.9245    0.0000 F   0  0  0  0  0  0  0  0  0  0  0  0
    4.8779    0.6701    0.0000 F   0  0  0  0  0  0  0  0  0  0  0  0
   -4.9666    0.1438    0.0000 C   0  0  0  0  0  0  0  0  0  0  0  0
   -4.9631    1.6438    0.0000 O   0  0  0  0  0  0  0  0  0  0  0  0
   -6.2674   -0.6032    0.0000 O   0  0  0  0  0  0  0  0  0  0  0  0
  2  1  1  6
  2  3  1  0
  3  4  1  0
  4  5  1  0
  5  6  1  0
  6  7  2  0
  7  8  1  0
  8  9  2  0
  9 10  1  0
  9 11  1  0
 11 12  1  0
 11 13  1  0
 11 14  1  0
  2 15  1  0
 15 16  2  0
 15 17  1  0
 10  5  2  0
M  END
>  <rName>  (1429) 
hPhe_3CF3

>  <PQ_SYMBOL>  (1429) 
hPhe_3CF3

>  <FULL_NAME>  (1429) 
(S)-2-amino-4-(3-(trifluoromethyl)phenyl)butanoic acid

>  <IUPAC_CONDENSED>  (1429) 
hPhe(3-CF3)

>  <IUPAC>  (1429) 
(2S)-2-amino-4-(3-(trifluoromethyl)phenyl)butanoic acid

>  <TYPE>  (1429) 
Backbone

>  <CLASS>  (1429) 
alpha

>  <ANALOG>  (1429) 
Phe

>  <MOL_WT>  (1429) 
247.21599999999995

>  <LOGP>  (1429) 
2.0499

>  <TPSA>  (1429) 
63.32000000000001

>  <POPULARITY>  (1429) 
3.8

>  <PROTECTED>  (1429) 
TRUE

>  <SMILES>  (1429) 
N[C@@H](CCc1(cccc(c1)C(F)(F)F))C(=O)O

>  <INCHIKEY>  (1429) 
YHEKYBSDNWZYJS-VIFPVBQESA-N

$$$$
hPhe_24diCl
     RDKit          2D

 15 15  0  0  0  0  0  0  0  0999 V2000
   -3.2293   -1.8059    0.0000 N   0  0  0  0  0  0  0  0  0  0  0  0
   -2.9633   -0.3297    0.0000 C   0  0  0  0  0  0  0  0  0  0  0  0
   -1.5519    0.1780    0.0000 C   0  0  0  0  0  0  0  0  0  0  0  0
   -0.4064   -0.7904    0.0000 C   0  0  0  0  0  0  0  0  0  0  0  0
    1.0050   -0.2827    0.0000 C   0  0  0  0  0  0  0  0  0  0  0  0
    1.2710    1.1935    0.0000 C   0  0  0  0  0  0  0  0  0  0  0  0
    2.6825    1.7012    0.0000 C   0  0  0  0  0  0  0  0  0  0  0  0
    3.8279    0.7327    0.0000 C   0  0  0  0  0  0  0  0  0  0  0  0
    5.2394    1.2405    0.0000 Cl  0  0  0  0  0  0  0  0  0  0  0  0
    3.5619   -0.7435    0.0000 C   0  0  0  0  0  0  0  0  0  0  0  0
    2.1505   -1.2512    0.0000 C   0  0  0  0  0  0  0  0  0  0  0  0
    1.8844   -2.7274    0.0000 Cl  0  0  0  0  0  0  0  0  0  0  0  0
   -4.1088    0.6388    0.0000 C   0  0  0  0  0  0  0  0  0  0  0  0
   -3.8427    2.1150    0.0000 O   0  0  0  0  0  0  0  0  0  0  0  0
   -5.5202    0.1311    0.0000 O   0  0  0  0  0  0  0  0  0  0  0  0
  2  1  1  6
  2  3  1  0
  3  4  1  0
  4  5  1  0
  5  6  1  0
  6  7  2  0
  7  8  1  0
  8  9  1  0
  8 10  2  0
 10 11  1  0
 11 12  1  0
  2 13  1  0
 13 14  2  0
 13 15  1  0
 11  5  2  0
M  END
>  <rName>  (1430) 
hPhe_24diCl

>  <PQ_SYMBOL>  (1430) 
hPhe_24diCl

>  <FULL_NAME>  (1430) 
(S)-2-amino-4-(2,4-dichlorophenyl)butanoic acid

>  <IUPAC_CONDENSED>  (1430) 
hPhe(2,4-diCl)

>  <IUPAC>  (1430) 
(2S)-2-amino-4-(2,4-dichlorophenyl)butanoic acid

>  <TYPE>  (1430) 
Backbone

>  <CLASS>  (1430) 
alpha

>  <ANALOG>  (1430) 
Phe

>  <MOL_WT>  (1430) 
248.10899999999998

>  <LOGP>  (1430) 
2.3379

>  <TPSA>  (1430) 
63.32000000000001

>  <POPULARITY>  (1430) 
4.9

>  <PROTECTED>  (1430) 
TRUE

>  <SMILES>  (1430) 
N[C@@H](CCc1(ccc(Cl)cc1Cl))C(=O)O

>  <INCHIKEY>  (1430) 
VSJIELYJPAYOJA-VIFPVBQESA-N

$$$$
D-hPhe_35diCl
     RDKit          2D

 15 15  0  0  0  0  0  0  0  0999 V2000
   -3.2624   -2.0067    0.0000 N   0  0  0  0  0  0  0  0  0  0  0  0
   -2.9982   -0.5301    0.0000 C   0  0  0  0  0  0  0  0  0  0  0  0
   -1.5873   -0.0207    0.0000 C   0  0  0  0  0  0  0  0  0  0  0  0
   -0.4407   -0.9878    0.0000 C   0  0  0  0  0  0  0  0  0  0  0  0
    0.9701   -0.4784    0.0000 C   0  0  0  0  0  0  0  0  0  0  0  0
    1.2344    0.9982    0.0000 C   0  0  0  0  0  0  0  0  0  0  0  0
    2.6452    1.5076    0.0000 C   0  0  0  0  0  0  0  0  0  0  0  0
    2.9095    2.9841    0.0000 Cl  0  0  0  0  0  0  0  0  0  0  0  0
    3.7918    0.5405    0.0000 C   0  0  0  0  0  0  0  0  0  0  0  0
    3.5276   -0.9361    0.0000 C   0  0  0  0  0  0  0  0  0  0  0  0
    4.6742   -1.9032    0.0000 Cl  0  0  0  0  0  0  0  0  0  0  0  0
    2.1167   -1.4455    0.0000 C   0  0  0  0  0  0  0  0  0  0  0  0
   -4.1448    0.4370    0.0000 C   0  0  0  0  0  0  0  0  0  0  0  0
   -3.8805    1.9135    0.0000 O   0  0  0  0  0  0  0  0  0  0  0  0
   -5.5556   -0.0724    0.0000 O   0  0  0  0  0  0  0  0  0  0  0  0
  2  1  1  1
  2  3  1  0
  3  4  1  0
  4  5  1  0
  5  6  2  0
  6  7  1  0
  7  8  1  0
  7  9  2  0
  9 10  1  0
 10 11  1  0
 10 12  2  0
  2 13  1  0
 13 14  2  0
 13 15  1  0
 12  5  1  0
M  END
>  <rName>  (1431) 
D-hPhe_35diCl

>  <PQ_SYMBOL>  (1431) 
D-hPhe_35diCl

>  <FULL_NAME>  (1431) 
(2R)-2-amino-4-(3,5-dichlorophenyl)butanoic acid

>  <IUPAC_CONDENSED>  (1431) 
D-hPhe(3,5-diCl)

>  <IUPAC>  (1431) 
(2R)-2-amino-4-(3,5-dichlorophenyl)butanoic acid

>  <TYPE>  (1431) 
Backbone

>  <CLASS>  (1431) 
alpha

>  <ANALOG>  (1431) 
Phe

>  <MOL_WT>  (1431) 
248.10899999999998

>  <LOGP>  (1431) 
2.3379

>  <TPSA>  (1431) 
63.32000000000001

>  <POPULARITY>  (1431) 
3.4

>  <PROTECTED>  (1431) 
TRUE

>  <SMILES>  (1431) 
N[C@H](CCc1(cc(Cl)cc(Cl)c1))C(=O)O

>  <INCHIKEY>  (1431) 
KGZBOALXMBRBMM-SECBINFHSA-N

$$$$
hPhe_35diCl
     RDKit          2D

 15 15  0  0  0  0  0  0  0  0999 V2000
   -3.2624   -2.0067    0.0000 N   0  0  0  0  0  0  0  0  0  0  0  0
   -2.9982   -0.5301    0.0000 C   0  0  0  0  0  0  0  0  0  0  0  0
   -1.5873   -0.0207    0.0000 C   0  0  0  0  0  0  0  0  0  0  0  0
   -0.4407   -0.9878    0.0000 C   0  0  0  0  0  0  0  0  0  0  0  0
    0.9701   -0.4784    0.0000 C   0  0  0  0  0  0  0  0  0  0  0  0
    1.2344    0.9982    0.0000 C   0  0  0  0  0  0  0  0  0  0  0  0
    2.6452    1.5076    0.0000 C   0  0  0  0  0  0  0  0  0  0  0  0
    2.9095    2.9841    0.0000 Cl  0  0  0  0  0  0  0  0  0  0  0  0
    3.7918    0.5405    0.0000 C   0  0  0  0  0  0  0  0  0  0  0  0
    3.5276   -0.9361    0.0000 C   0  0  0  0  0  0  0  0  0  0  0  0
    4.6742   -1.9032    0.0000 Cl  0  0  0  0  0  0  0  0  0  0  0  0
    2.1167   -1.4455    0.0000 C   0  0  0  0  0  0  0  0  0  0  0  0
   -4.1448    0.4370    0.0000 C   0  0  0  0  0  0  0  0  0  0  0  0
   -3.8805    1.9135    0.0000 O   0  0  0  0  0  0  0  0  0  0  0  0
   -5.5556   -0.0724    0.0000 O   0  0  0  0  0  0  0  0  0  0  0  0
  2  1  1  6
  2  3  1  0
  3  4  1  0
  4  5  1  0
  5  6  2  0
  6  7  1  0
  7  8  1  0
  7  9  2  0
  9 10  1  0
 10 11  1  0
 10 12  2  0
  2 13  1  0
 13 14  2  0
 13 15  1  0
 12  5  1  0
M  END
>  <rName>  (1432) 
hPhe_35diCl

>  <PQ_SYMBOL>  (1432) 
hPhe_35diCl

>  <FULL_NAME>  (1432) 
(S)-2-amino-4-(3,5-dichlorophenyl)butanoic acid

>  <IUPAC_CONDENSED>  (1432) 
hPhe(3,5-diCl)

>  <IUPAC>  (1432) 
(2S)-2-amino-4-(3,5-dichlorophenyl)butanoic acid

>  <TYPE>  (1432) 
Backbone

>  <CLASS>  (1432) 
alpha

>  <ANALOG>  (1432) 
Phe

>  <MOL_WT>  (1432) 
248.10899999999998

>  <LOGP>  (1432) 
2.3379

>  <TPSA>  (1432) 
63.32000000000001

>  <POPULARITY>  (1432) 
3.4

>  <PROTECTED>  (1432) 
TRUE

>  <SMILES>  (1432) 
N[C@@H](CCc1(cc(Cl)cc(Cl)c1))C(=O)O

>  <INCHIKEY>  (1432) 
KGZBOALXMBRBMM-VIFPVBQESA-N

$$$$
D-hPhe_2Me
     RDKit          2D

 14 14  0  0  0  0  0  0  0  0999 V2000
   -2.7345   -1.9034    0.0000 N   0  0  0  0  0  0  0  0  0  0  0  0
   -2.5673   -0.4128    0.0000 C   0  0  0  0  0  0  0  0  0  0  0  0
   -1.1928    0.1877    0.0000 C   0  0  0  0  0  0  0  0  0  0  0  0
    0.0146   -0.7024    0.0000 C   0  0  0  0  0  0  0  0  0  0  0  0
    1.3891   -0.1019    0.0000 C   0  0  0  0  0  0  0  0  0  0  0  0
    1.5563    1.3887    0.0000 C   0  0  0  0  0  0  0  0  0  0  0  0
    2.9309    1.9892    0.0000 C   0  0  0  0  0  0  0  0  0  0  0  0
    4.1382    1.0991    0.0000 C   0  0  0  0  0  0  0  0  0  0  0  0
    3.9710   -0.3916    0.0000 C   0  0  0  0  0  0  0  0  0  0  0  0
    2.5965   -0.9921    0.0000 C   0  0  0  0  0  0  0  0  0  0  0  0
    2.4292   -2.4827    0.0000 C   0  0  0  0  0  0  0  0  0  0  0  0
   -3.7746    0.4773    0.0000 C   0  0  0  0  0  0  0  0  0  0  0  0
   -3.6074    1.9680    0.0000 O   0  0  0  0  0  0  0  0  0  0  0  0
   -5.1492   -0.1232    0.0000 O   0  0  0  0  0  0  0  0  0  0  0  0
  2  1  1  1
  2  3  1  0
  3  4  1  0
  4  5  1  0
  5  6  2  0
  6  7  1  0
  7  8  2  0
  8  9  1  0
  9 10  2  0
 10 11  1  0
  2 12  1  0
 12 13  2  0
 12 14  1  0
 10  5  1  0
M  END
>  <rName>  (1433) 
D-hPhe_2Me

>  <PQ_SYMBOL>  (1433) 
D-hPhe_2Me

>  <FULL_NAME>  (1433) 
(R)-2-amino-4-(o-tolyl)butanoic acid

>  <IUPAC_CONDENSED>  (1433) 
D-hPhe(2-Me)

>  <IUPAC>  (1433) 
(2R)-2-amino-4-(2-methylphenyl)butanoic acid

>  <TYPE>  (1433) 
Backbone

>  <CLASS>  (1433) 
alpha

>  <ANALOG>  (1433) 
Phe

>  <MOL_WT>  (1433) 
193.24599999999995

>  <LOGP>  (1433) 
1.3395199999999998

>  <TPSA>  (1433) 
63.32000000000001

>  <POPULARITY>  (1433) 
8.8

>  <PROTECTED>  (1433) 
TRUE

>  <SMILES>  (1433) 
N[C@H](CCc1(ccccc1C))C(=O)O

>  <INCHIKEY>  (1433) 
UIINSJBTFLRMLY-SNVBAGLBSA-N

$$$$
D-hPhe_4Me
     RDKit          2D

 14 14  0  0  0  0  0  0  0  0999 V2000
   -3.1731   -1.8740    0.0000 N   0  0  0  0  0  0  0  0  0  0  0  0
   -2.8476   -0.4097    0.0000 C   0  0  0  0  0  0  0  0  0  0  0  0
   -1.4168    0.0405    0.0000 C   0  0  0  0  0  0  0  0  0  0  0  0
   -0.3114   -0.9735    0.0000 C   0  0  0  0  0  0  0  0  0  0  0  0
    1.1194   -0.5232    0.0000 C   0  0  0  0  0  0  0  0  0  0  0  0
    1.4449    0.9411    0.0000 C   0  0  0  0  0  0  0  0  0  0  0  0
    2.8757    1.3913    0.0000 C   0  0  0  0  0  0  0  0  0  0  0  0
    3.9810    0.3773    0.0000 C   0  0  0  0  0  0  0  0  0  0  0  0
    5.4119    0.8276    0.0000 C   0  0  0  0  0  0  0  0  0  0  0  0
    3.6556   -1.0870    0.0000 C   0  0  0  0  0  0  0  0  0  0  0  0
    2.2247   -1.5372    0.0000 C   0  0  0  0  0  0  0  0  0  0  0  0
   -3.9530    0.6043    0.0000 C   0  0  0  0  0  0  0  0  0  0  0  0
   -3.6275    2.0685    0.0000 O   0  0  0  0  0  0  0  0  0  0  0  0
   -5.3838    0.1540    0.0000 O   0  0  0  0  0  0  0  0  0  0  0  0
  2  1  1  1
  2  3  1  0
  3  4  1  0
  4  5  1  0
  5  6  1  0
  6  7  2  0
  7  8  1  0
  8  9  1  0
  8 10  2  0
 10 11  1  0
  2 12  1  0
 12 13  2  0
 12 14  1  0
 11  5  2  0
M  END
>  <rName>  (1434) 
D-hPhe_4Me

>  <PQ_SYMBOL>  (1434) 
D-hPhe_4Me

>  <FULL_NAME>  (1434) 
(R)-2-amino-4-(p-tolyl)butanoic acid

>  <IUPAC_CONDENSED>  (1434) 
D-hPhe(4-Me)

>  <IUPAC>  (1434) 
(2R)-2-amino-4-(4-methylphenyl)butanoic acid

>  <TYPE>  (1434) 
Backbone

>  <CLASS>  (1434) 
alpha

>  <ANALOG>  (1434) 
Phe

>  <MOL_WT>  (1434) 
193.24599999999998

>  <LOGP>  (1434) 
1.3395199999999998

>  <TPSA>  (1434) 
63.32000000000001

>  <POPULARITY>  (1434) 
6.4

>  <PROTECTED>  (1434) 
TRUE

>  <SMILES>  (1434) 
N[C@H](CCc1(ccc(C)cc1))C(=O)O

>  <INCHIKEY>  (1434) 
QHABQGXRISWAEZ-SNVBAGLBSA-N

$$$$
Phe_4Ph_34diCl
     RDKit          2D

 20 21  0  0  0  0  0  0  0  0999 V2000
   -3.8339    1.7683    0.0000 N   0  0  0  0  0  0  0  0  0  0  0  0
   -4.4742    0.4118    0.0000 C   0  0  0  0  0  0  0  0  0  0  0  0
   -3.6196   -0.8209    0.0000 C   0  0  0  0  0  0  0  0  0  0  0  0
   -2.1247   -0.6972    0.0000 C   0  0  0  0  0  0  0  0  0  0  0  0
   -1.4844    0.6592    0.0000 C   0  0  0  0  0  0  0  0  0  0  0  0
    0.0105    0.7830    0.0000 C   0  0  0  0  0  0  0  0  0  0  0  0
    0.8650   -0.4498    0.0000 C   0  0  0  0  0  0  0  0  0  0  0  0
    0.2247   -1.8063    0.0000 C   0  0  0  0  0  0  0  0  0  0  0  0
   -1.2702   -1.9300    0.0000 C   0  0  0  0  0  0  0  0  0  0  0  0
    2.3599   -0.3261    0.0000 C   0  0  0  0  0  0  0  0  0  0  0  0
    3.2145   -1.5589    0.0000 C   0  0  0  0  0  0  0  0  0  0  0  0
    4.7094   -1.4351    0.0000 C   0  0  0  0  0  0  0  0  0  0  0  0
    5.3497   -0.0787    0.0000 C   0  0  0  0  0  0  0  0  0  0  0  0
    6.8446    0.0450    0.0000 Cl  0  0  0  0  0  0  0  0  0  0  0  0
    4.4951    1.1541    0.0000 C   0  0  0  0  0  0  0  0  0  0  0  0
    5.1354    2.5105    0.0000 Cl  0  0  0  0  0  0  0  0  0  0  0  0
    3.0002    1.0304    0.0000 C   0  0  0  0  0  0  0  0  0  0  0  0
   -5.9691    0.2881    0.0000 C   0  0  0  0  0  0  0  0  0  0  0  0
   -6.6094   -1.0683    0.0000 O   0  0  0  0  0  0  0  0  0  0  0  0
   -6.8237    1.5209    0.0000 O   0  0  0  0  0  0  0  0  0  0  0  0
  2  1  1  1
  2  3  1  0
  3  4  1  0
  4  5  1  0
  5  6  2  0
  6  7  1  0
  7  8  2  0
  8  9  1  0
  7 10  1  0
 10 11  1  0
 11 12  2  0
 12 13  1  0
 13 14  1  0
 13 15  2  0
 15 16  1  0
 15 17  1  0
  2 18  1  0
 18 19  2  0
 18 20  1  0
  9  4  2  0
 17 10  2  0
M  END
>  <rName>  (1435) 
Phe_4Ph_34diCl

>  <PQ_SYMBOL>  (1435) 
Phe_4Ph_34diCl

>  <FULL_NAME>  (1435) 
(S)-2-amino-3-(3',4'-dichloro-[1,1'-biphenyl]-4-yl)propanoic acid

>  <IUPAC_CONDENSED>  (1435) 
Phe(4-Ph(3,4-diCl))

>  <IUPAC>  (1435) 
(2S)-2-amino-3-(4-(3,4-dichlorophenyl)phenyl)propanoic acid

>  <TYPE>  (1435) 
Backbone

>  <CLASS>  (1435) 
alpha

>  <ANALOG>  (1435) 
Phe

>  <MOL_WT>  (1435) 
310.18

>  <LOGP>  (1435) 
3.6148000000000025

>  <TPSA>  (1435) 
63.32000000000001

>  <POPULARITY>  (1435) 
2.8

>  <PROTECTED>  (1435) 
TRUE

>  <SMILES>  (1435) 
N[C@@H](Cc1(ccc(cc1)c2(ccc(Cl)c(Cl)c2)))C(=O)O

>  <INCHIKEY>  (1435) 
JNGFTZCQSHBMTQ-AWEZNQCLSA-N

$$$$
D-Tyr_35diF
     RDKit          2D

 15 15  0  0  0  0  0  0  0  0999 V2000
   -2.0609    1.6226    0.0000 N   0  0  0  0  0  0  0  0  0  0  0  0
   -2.4694    0.1793    0.0000 C   0  0  0  0  0  0  0  0  0  0  0  0
   -1.4237   -0.8961    0.0000 C   0  0  0  0  0  0  0  0  0  0  0  0
    0.0305   -0.5283    0.0000 C   0  0  0  0  0  0  0  0  0  0  0  0
    0.4390    0.9150    0.0000 C   0  0  0  0  0  0  0  0  0  0  0  0
    1.8932    1.2829    0.0000 C   0  0  0  0  0  0  0  0  0  0  0  0
    2.3017    2.7262    0.0000 F   0  0  0  0  0  0  0  0  0  0  0  0
    2.9389    0.2075    0.0000 C   0  0  0  0  0  0  0  0  0  0  0  0
    4.3931    0.5753    0.0000 O   0  0  0  0  0  0  0  0  0  0  0  0
    2.5304   -1.2358    0.0000 C   0  0  0  0  0  0  0  0  0  0  0  0
    3.5760   -2.3113    0.0000 F   0  0  0  0  0  0  0  0  0  0  0  0
    1.0762   -1.6037    0.0000 C   0  0  0  0  0  0  0  0  0  0  0  0
   -3.9236   -0.1886    0.0000 C   0  0  0  0  0  0  0  0  0  0  0  0
   -4.3321   -1.6319    0.0000 O   0  0  0  0  0  0  0  0  0  0  0  0
   -4.9693    0.8868    0.0000 O   0  0  0  0  0  0  0  0  0  0  0  0
  2  1  1  6
  2  3  1  0
  3  4  1  0
  4  5  2  0
  5  6  1  0
  6  7  1  0
  6  8  2  0
  8  9  1  0
  8 10  1  0
 10 11  1  0
 10 12  2  0
  2 13  1  0
 13 14  2  0
 13 15  1  0
 12  4  1  0
M  END
>  <rName>  (1436) 
D-Tyr_35diF

>  <PQ_SYMBOL>  (1436) 
D-Tyr_35diF

>  <FULL_NAME>  (1436) 
(R)-2-amino-3-(3,5-difluoro-4-hydroxyphenyl)propanoic acid

>  <IUPAC_CONDENSED>  (1436) 
D-Tyr(3,5-diF)

>  <IUPAC>  (1436) 
(2R)-2-amino-3-(3,5-difluoro-4-hydroxyphenyl)propanoic acid

>  <TYPE>  (1436) 
Backbone

>  <CLASS>  (1436) 
alpha

>  <ANALOG>  (1436) 
Tyr

>  <MOL_WT>  (1436) 
217.17099999999996

>  <LOGP>  (1436) 
0.6248

>  <TPSA>  (1436) 
83.55

>  <POPULARITY>  (1436) 
3.1

>  <PROTECTED>  (1436) 
TRUE

>  <SMILES>  (1436) 
N[C@H](Cc1(cc(F)c(O)c(F)c1))C(=O)O

>  <INCHIKEY>  (1436) 
KPKMCRFCNWVLDA-SSDOTTSWSA-N

$$$$
aMeCha
     RDKit          2D

 13 13  0  0  0  0  0  0  0  0999 V2000
   -0.4214    1.4691    0.0000 N   0  0  0  0  0  0  0  0  0  0  0  0
   -1.5526    0.4840    0.0000 C   0  0  0  0  0  0  0  0  0  0  0  0
   -2.5377    1.6152    0.0000 C   0  0  0  0  0  0  0  0  0  0  0  0
   -0.5675   -0.6472    0.0000 C   0  0  0  0  0  0  0  0  0  0  0  0
    0.9047   -0.3597    0.0000 C   0  0  0  0  0  0  0  0  0  0  0  0
    1.3918    1.0591    0.0000 C   0  0  0  0  0  0  0  0  0  0  0  0
    2.8640    1.3466    0.0000 C   0  0  0  0  0  0  0  0  0  0  0  0
    3.8491    0.2154    0.0000 C   0  0  0  0  0  0  0  0  0  0  0  0
    3.3620   -1.2033    0.0000 C   0  0  0  0  0  0  0  0  0  0  0  0
    1.8898   -1.4908    0.0000 C   0  0  0  0  0  0  0  0  0  0  0  0
   -2.6837   -0.5011    0.0000 C   0  0  0  0  0  0  0  0  0  0  0  0
   -2.3962   -1.9733    0.0000 O   0  0  0  0  0  0  0  0  0  0  0  0
   -4.1025   -0.0140    0.0000 O   0  0  0  0  0  0  0  0  0  0  0  0
  1  2  1  0
  2  3  1  6
  2  4  1  0
  4  5  1  0
  5  6  1  0
  6  7  1  0
  7  8  1  0
  8  9  1  0
  9 10  1  0
  2 11  1  0
 11 12  2  0
 11 13  1  0
 10  5  1  0
M  END
>  <rName>  (1437) 
aMeCha

>  <PQ_SYMBOL>  (1437) 
aMeCha

>  <FULL_NAME>  (1437) 
(S)-2-amino-3-cyclohexyl-2-methylpropanoic acid

>  <IUPAC_CONDENSED>  (1437) 
aMeCha

>  <IUPAC>  (1437) 
(2S)-2-amino-2-(cyclohexylmethyl)propanoic acid

>  <TYPE>  (1437) 
Backbone

>  <CLASS>  (1437) 
alpha

>  <ANALOG>  (1437) 
Ala

>  <MOL_WT>  (1437) 
185.267

>  <LOGP>  (1437) 
1.7588

>  <TPSA>  (1437) 
63.32000000000001

>  <POPULARITY>  (1437) 
5.9

>  <PROTECTED>  (1437) 
TRUE

>  <SMILES>  (1437) 
N[C@@](C)(CC1(CCCCC1))C(=O)O

>  <INCHIKEY>  (1437) 
RAUJVFYNXLFAKY-JTQLQIEISA-N

$$$$
D-Nle_ethynyl
     RDKit          2D

 11 10  0  0  0  0  0  0  0  0999 V2000
   -2.1124    1.8649    0.0000 N   0  0  0  0  0  0  0  0  0  0  0  0
   -2.0306    0.3672    0.0000 C   0  0  0  0  0  0  0  0  0  0  0  0
   -0.6927   -0.3109    0.0000 C   0  0  0  0  0  0  0  0  0  0  0  0
    0.5636    0.5087    0.0000 C   0  0  0  0  0  0  0  0  0  0  0  0
    1.9016   -0.1694    0.0000 C   0  0  0  0  0  0  0  0  0  0  0  0
    3.1578    0.6503    0.0000 C   0  0  0  0  0  0  0  0  0  0  0  0
    4.4958   -0.0278    0.0000 C   0  0  0  0  0  0  0  0  0  0  0  0
    5.8338   -0.7059    0.0000 C   0  0  0  0  0  0  0  0  0  0  0  0
   -3.2869   -0.4525    0.0000 C   0  0  0  0  0  0  0  0  0  0  0  0
   -3.2051   -1.9503    0.0000 O   0  0  0  0  0  0  0  0  0  0  0  0
   -4.6248    0.2256    0.0000 O   0  0  0  0  0  0  0  0  0  0  0  0
  2  1  1  6
  2  3  1  0
  3  4  1  0
  4  5  1  0
  5  6  1  0
  6  7  1  0
  7  8  3  0
  2  9  1  0
  9 10  2  0
  9 11  1  0
M  END
>  <rName>  (1438) 
D-Nle_ethynyl

>  <PQ_SYMBOL>  (1438) 
D-Nle_ethynyl

>  <FULL_NAME>  (1438) 
(R)-2-aminooct-7-ynoic acid

>  <IUPAC_CONDENSED>  (1438) 
D-Nle(ethynyl)

>  <IUPAC>  (1438) 
(2R)-2-aminooct-7-ynoic acid

>  <TYPE>  (1438) 
Backbone

>  <CLASS>  (1438) 
alpha

>  <ANALOG>  (1438) 
Leu

>  <MOL_WT>  (1438) 
155.197

>  <LOGP>  (1438) 
0.5918999999999999

>  <TPSA>  (1438) 
63.32000000000001

>  <POPULARITY>  (1438) 
3.5

>  <PROTECTED>  (1438) 
TRUE

>  <SMILES>  (1438) 
N[C@H](CCCCC#C)C(=O)O

>  <INCHIKEY>  (1438) 
HYWGKAZTGORCAE-SSDOTTSWSA-N

$$$$
Phe_4Ph_3F
     RDKit          2D

 19 20  0  0  0  0  0  0  0  0999 V2000
   -3.4758    1.7665    0.0000 N   0  0  0  0  0  0  0  0  0  0  0  0
   -4.1145    0.4093    0.0000 C   0  0  0  0  0  0  0  0  0  0  0  0
   -3.2584   -0.8224    0.0000 C   0  0  0  0  0  0  0  0  0  0  0  0
   -1.7637   -0.6969    0.0000 C   0  0  0  0  0  0  0  0  0  0  0  0
   -1.1250    0.6603    0.0000 C   0  0  0  0  0  0  0  0  0  0  0  0
    0.3698    0.7858    0.0000 C   0  0  0  0  0  0  0  0  0  0  0  0
    1.2258   -0.4460    0.0000 C   0  0  0  0  0  0  0  0  0  0  0  0
    0.5871   -1.8032    0.0000 C   0  0  0  0  0  0  0  0  0  0  0  0
   -0.9076   -1.9287    0.0000 C   0  0  0  0  0  0  0  0  0  0  0  0
    2.7206   -0.3205    0.0000 C   0  0  0  0  0  0  0  0  0  0  0  0
    3.5766   -1.5522    0.0000 C   0  0  0  0  0  0  0  0  0  0  0  0
    5.0713   -1.4268    0.0000 C   0  0  0  0  0  0  0  0  0  0  0  0
    5.7100   -0.0695    0.0000 C   0  0  0  0  0  0  0  0  0  0  0  0
    4.8540    1.1622    0.0000 C   0  0  0  0  0  0  0  0  0  0  0  0
    5.4927    2.5194    0.0000 F   0  0  0  0  0  0  0  0  0  0  0  0
    3.3593    1.0367    0.0000 C   0  0  0  0  0  0  0  0  0  0  0  0
   -5.6092    0.2838    0.0000 C   0  0  0  0  0  0  0  0  0  0  0  0
   -6.2479   -1.0734    0.0000 O   0  0  0  0  0  0  0  0  0  0  0  0
   -6.4652    1.5156    0.0000 O   0  0  0  0  0  0  0  0  0  0  0  0
  2  1  1  1
  2  3  1  0
  3  4  1  0
  4  5  1  0
  5  6  2  0
  6  7  1  0
  7  8  2  0
  8  9  1  0
  7 10  1  0
 10 11  2  0
 11 12  1  0
 12 13  2  0
 13 14  1  0
 14 15  1  0
 14 16  2  0
  2 17  1  0
 17 18  2  0
 17 19  1  0
  9  4  2  0
 16 10  1  0
M  END
>  <rName>  (1439) 
Phe_4Ph_3F

>  <PQ_SYMBOL>  (1439) 
Phe_4Ph_3F

>  <FULL_NAME>  (1439) 
(S)-2-amino-3-(3'-fluoro-[1,1'-biphenyl]-4-yl)propanoic acid

>  <IUPAC_CONDENSED>  (1439) 
Phe(4-Ph(3-F))

>  <IUPAC>  (1439) 
(2S)-2-amino-3-(4-(3-fluorophenyl)phenyl)propanoic acid

>  <TYPE>  (1439) 
Backbone

>  <CLASS>  (1439) 
alpha

>  <ANALOG>  (1439) 
Phe

>  <MOL_WT>  (1439) 
259.28

>  <LOGP>  (1439) 
2.4471

>  <TPSA>  (1439) 
63.32000000000001

>  <POPULARITY>  (1439) 
4.5

>  <PROTECTED>  (1439) 
TRUE

>  <SMILES>  (1439) 
N[C@@H](Cc1(ccc(cc1)c2(cccc(F)c2)))C(=O)O

>  <INCHIKEY>  (1439) 
FCQAZEOPLJJZBF-AWEZNQCLSA-N

$$$$
Ser_allyl
     RDKit          2D

 10  9  0  0  0  0  0  0  0  0999 V2000
   -1.4166   -1.8843    0.0000 N   0  0  0  0  0  0  0  0  0  0  0  0
   -1.4265   -0.3844    0.0000 C   0  0  0  0  0  0  0  0  0  0  0  0
   -0.1324    0.3741    0.0000 C   0  0  0  0  0  0  0  0  0  0  0  0
    1.1716   -0.3673    0.0000 O   0  0  0  0  0  0  0  0  0  0  0  0
    2.4657    0.3912    0.0000 C   0  0  0  0  0  0  0  0  0  0  0  0
    3.7696   -0.3503    0.0000 C   0  0  0  0  0  0  0  0  0  0  0  0
    5.0637    0.4082    0.0000 C   0  0  0  0  0  0  0  0  0  0  0  0
   -2.7304    0.3571    0.0000 C   0  0  0  0  0  0  0  0  0  0  0  0
   -2.7402    1.8571    0.0000 O   0  0  0  0  0  0  0  0  0  0  0  0
   -4.0245   -0.4014    0.0000 O   0  0  0  0  0  0  0  0  0  0  0  0
  2  1  1  6
  2  3  1  0
  3  4  1  0
  4  5  1  0
  5  6  1  0
  6  7  2  0
  2  8  1  0
  8  9  2  0
  8 10  1  0
M  END
>  <rName>  (1440) 
Ser_allyl

>  <PQ_SYMBOL>  (1440) 
Ser_allyl

>  <FULL_NAME>  (1440) 
O-allyl-L-serine

>  <IUPAC_CONDENSED>  (1440) 
Ser(allyl)

>  <IUPAC>  (1440) 
(2S)-2-amino-3-((prop-2-en-1-yl)oxy)propanoic acid

>  <TYPE>  (1440) 
Backbone

>  <CLASS>  (1440) 
alpha

>  <ANALOG>  (1440) 
Ser

>  <MOL_WT>  (1440) 
145.158

>  <LOGP>  (1440) 
-0.3991000000000003

>  <TPSA>  (1440) 
72.55

>  <POPULARITY>  (1440) 
8.5

>  <PROTECTED>  (1440) 
TRUE

>  <SMILES>  (1440) 
N[C@@H](COCC=C)C(=O)O

>  <INCHIKEY>  (1440) 
PLTOASLATKFEBR-YFKPBYRVSA-N

$$$$
Ser_prop2ynyl
     RDKit          2D

 10  9  0  0  0  0  0  0  0  0999 V2000
   -1.2340   -1.8694    0.0000 N   0  0  0  0  0  0  0  0  0  0  0  0
   -1.3962   -0.3782    0.0000 C   0  0  0  0  0  0  0  0  0  0  0  0
   -0.1859    0.5079    0.0000 C   0  0  0  0  0  0  0  0  0  0  0  0
    1.1866   -0.0973    0.0000 O   0  0  0  0  0  0  0  0  0  0  0  0
    2.3969    0.7888    0.0000 C   0  0  0  0  0  0  0  0  0  0  0  0
    3.7695    0.1837    0.0000 C   0  0  0  0  0  0  0  0  0  0  0  0
    5.1420   -0.4214    0.0000 C   0  0  0  0  0  0  0  0  0  0  0  0
   -2.7688    0.2269    0.0000 C   0  0  0  0  0  0  0  0  0  0  0  0
   -2.9310    1.7181    0.0000 O   0  0  0  0  0  0  0  0  0  0  0  0
   -3.9791   -0.6591    0.0000 O   0  0  0  0  0  0  0  0  0  0  0  0
  2  1  1  6
  2  3  1  0
  3  4  1  0
  4  5  1  0
  5  6  1  0
  6  7  3  0
  2  8  1  0
  8  9  2  0
  8 10  1  0
M  END
>  <rName>  (1441) 
Ser_prop2ynyl

>  <PQ_SYMBOL>  (1441) 
Ser_prop2ynyl

>  <FULL_NAME>  (1441) 
O-(prop-2-yn-1-yl)-L-serine

>  <IUPAC_CONDENSED>  (1441) 
Ser(prop-2-ynyl)

>  <IUPAC>  (1441) 
(2S)-2-amino-3-((prop-2-yn-1-yl)oxy)propanoic acid

>  <TYPE>  (1441) 
Backbone

>  <CLASS>  (1441) 
alpha

>  <ANALOG>  (1441) 
Ser

>  <MOL_WT>  (1441) 
143.142

>  <LOGP>  (1441) 
-0.9518999999999997

>  <TPSA>  (1441) 
72.55

>  <POPULARITY>  (1441) 
5.8

>  <PROTECTED>  (1441) 
TRUE

>  <SMILES>  (1441) 
N[C@@H](COCC#C)C(=O)O

>  <INCHIKEY>  (1441) 
CBKWZMZSOKUORR-YFKPBYRVSA-N

$$$$
Hyp_iBu
     RDKit          2D

 13 13  0  0  0  0  0  0  0  0999 V2000
    2.1750   -1.6019    0.0000 N   0  0  0  0  0  0  0  0  0  0  0  0
    2.1803   -0.1019    0.0000 C   0  0  0  0  0  0  0  0  0  0  0  0
    0.7554    0.3668    0.0000 C   0  0  0  0  0  0  0  0  0  0  0  0
   -0.1306   -0.8436    0.0000 C   0  0  0  0  0  0  0  0  0  0  0  0
   -1.6306   -0.8382    0.0000 O   0  0  0  0  0  0  0  0  0  0  0  0
   -2.3760    0.4635    0.0000 C   0  0  0  0  0  0  0  0  0  0  0  0
   -3.8759    0.4688    0.0000 C   0  0  0  0  0  0  0  0  0  0  0  0
   -4.6213    1.7705    0.0000 C   0  0  0  0  0  0  0  0  0  0  0  0
   -4.6306   -0.8275    0.0000 C   0  0  0  0  0  0  0  0  0  0  0  0
    0.7467   -2.0603    0.0000 C   0  0  0  0  0  0  0  0  0  0  0  0
    3.3970    0.7755    0.0000 C   0  0  0  0  0  0  0  0  0  0  0  0
    3.2455    2.2678    0.0000 O   0  0  0  0  0  0  0  0  0  0  0  0
    4.7651    0.1605    0.0000 O   0  0  0  0  0  0  0  0  0  0  0  0
  1  2  1  0
  2  3  1  0
  3  4  1  0
  4  5  1  6
  5  6  1  0
  6  7  1  0
  7  8  1  0
  7  9  1  0
  4 10  1  0
  2 11  1  1
 11 12  2  0
 11 13  1  0
 10  1  1  0
M  END
>  <rName>  (1442) 
Hyp_iBu

>  <PQ_SYMBOL>  (1442) 
Hyp_iBu

>  <FULL_NAME>  (1442) 
(2S,4R)-4-isobutoxypyrrolidine-2-carboxylic acid

>  <IUPAC_CONDENSED>  (1442) 
Hyp(iBu)

>  <IUPAC>  (1442) 
(2S,4R)-4-isobutoxypyrrolidine-2-carboxylic acid

>  <TYPE>  (1442) 
Backbone

>  <CLASS>  (1442) 
alpha

>  <ANALOG>  (1442) 
Pro

>  <MOL_WT>  (1442) 
187.23899999999998

>  <LOGP>  (1442) 
0.47410000000000013

>  <TPSA>  (1442) 
58.56

>  <POPULARITY>  (1442) 
5.4

>  <PROTECTED>  (1442) 
TRUE

>  <SMILES>  (1442) 
N1[C@@H](C[C@@H](OCC(C)C)C1)C(=O)O

>  <INCHIKEY>  (1442) 
XYWFSMYUGPHGRN-SFYZADRCSA-N

$$$$
Hyp_Me
     RDKit          2D

 10 10  0  0  0  0  0  0  0  0999 V2000
    0.5059   -1.6189    0.0000 N   0  0  0  0  0  0  0  0  0  0  0  0
    0.8536   -0.1598    0.0000 C   0  0  0  0  0  0  0  0  0  0  0  0
   -0.4267    0.6218    0.0000 C   0  0  0  0  0  0  0  0  0  0  0  0
   -1.5656   -0.3543    0.0000 C   0  0  0  0  0  0  0  0  0  0  0  0
   -3.0248   -0.0066    0.0000 O   0  0  0  0  0  0  0  0  0  0  0  0
   -3.4533    1.4309    0.0000 C   0  0  0  0  0  0  0  0  0  0  0  0
   -0.9893   -1.7392    0.0000 C   0  0  0  0  0  0  0  0  0  0  0  0
    2.2384    0.4166    0.0000 C   0  0  0  0  0  0  0  0  0  0  0  0
    2.4317    1.9041    0.0000 O   0  0  0  0  0  0  0  0  0  0  0  0
    3.4300   -0.4945    0.0000 O   0  0  0  0  0  0  0  0  0  0  0  0
  1  2  1  0
  2  3  1  0
  3  4  1  0
  4  5  1  6
  5  6  1  0
  4  7  1  0
  2  8  1  1
  8  9  2  0
  8 10  1  0
  7  1  1  0
M  END
>  <rName>  (1443) 
Hyp_Me

>  <PQ_SYMBOL>  (1443) 
Hyp_Me

>  <FULL_NAME>  (1443) 
(2S,4R)-4-methoxypyrrolidine-2-carboxylic acid

>  <IUPAC_CONDENSED>  (1443) 
Hyp(Me)

>  <IUPAC>  (1443) 
(2S,4R)-4-methoxypyrrolidine-2-carboxylic acid

>  <TYPE>  (1443) 
Backbone

>  <CLASS>  (1443) 
alpha

>  <ANALOG>  (1443) 
Pro

>  <MOL_WT>  (1443) 
145.15800000000002

>  <LOGP>  (1443) 
-0.5521

>  <TPSA>  (1443) 
58.56

>  <POPULARITY>  (1443) 
13

>  <PROTECTED>  (1443) 
TRUE

>  <SMILES>  (1443) 
N1[C@@H](C[C@@H](OC)C1)C(=O)O

>  <INCHIKEY>  (1443) 
RNXKXUOGQKYKTH-UHNVWZDZSA-N

$$$$
Inp_4Ph_4F
     RDKit          2D

 16 17  0  0  0  0  0  0  0  0999 V2000
    3.6462   -1.4950    0.0000 N   0  0  0  0  0  0  0  0  0  0  0  0
    2.3112   -2.1791    0.0000 C   0  0  0  0  0  0  0  0  0  0  0  0
    1.0513   -1.3650    0.0000 C   0  0  0  0  0  0  0  0  0  0  0  0
    1.1264    0.1331    0.0000 C   0  0  0  0  0  0  0  0  0  0  0  0
    2.4613    0.8172    0.0000 C   0  0  0  0  0  0  0  0  0  0  0  0
    3.7212    0.0031    0.0000 C   0  0  0  0  0  0  0  0  0  0  0  0
   -0.3620   -0.0531    0.0000 C   0  0  0  0  0  0  0  0  0  0  0  0
   -1.2675    1.1428    0.0000 C   0  0  0  0  0  0  0  0  0  0  0  0
   -2.7559    0.9566    0.0000 C   0  0  0  0  0  0  0  0  0  0  0  0
   -3.3388   -0.4255    0.0000 C   0  0  0  0  0  0  0  0  0  0  0  0
   -4.8272   -0.6117    0.0000 F   0  0  0  0  0  0  0  0  0  0  0  0
   -2.4333   -1.6214    0.0000 C   0  0  0  0  0  0  0  0  0  0  0  0
   -0.9449   -1.4352    0.0000 C   0  0  0  0  0  0  0  0  0  0  0  0
    0.6846    1.5666    0.0000 C   0  0  0  0  0  0  0  0  0  0  0  0
   -0.7778    1.9007    0.0000 O   0  0  0  0  0  0  0  0  0  0  0  0
    1.7050    2.6660    0.0000 O   0  0  0  0  0  0  0  0  0  0  0  0
  1  2  1  0
  2  3  1  0
  3  4  1  0
  4  5  1  0
  5  6  1  0
  4  7  1  0
  7  8  1  0
  8  9  2  0
  9 10  1  0
 10 11  1  0
 10 12  2  0
 12 13  1  0
  4 14  1  0
 14 15  2  0
 14 16  1  0
  6  1  1  0
 13  7  2  0
M  END
>  <rName>  (1444) 
Inp_4Ph_4F

>  <PQ_SYMBOL>  (1444) 
Inp_4Ph_4F

>  <FULL_NAME>  (1444) 
4-(4-fluorophenyl)piperidine-4-carboxylic acid

>  <IUPAC_CONDENSED>  (1444) 
Inp(4-Ph(4-F))

>  <IUPAC>  (1444) 
4-(4-fluorophenyl)piperidine-4-carboxylic acid

>  <TYPE>  (1444) 
Backbone

>  <CLASS>  (1444) 
gamma

>  <ANALOG>  (1444) 
Pro

>  <MOL_WT>  (1444) 
223.24699999999999

>  <LOGP>  (1444) 
1.5315

>  <TPSA>  (1444) 
49.33

>  <POPULARITY>  (1444) 
6.6

>  <PROTECTED>  (1444) 
TRUE

>  <SMILES>  (1444) 
N1CCC(CC1)(c2(ccc(F)cc2))C(=O)O

>  <INCHIKEY>  (1444) 
QFHFMHREPUBQBP-UHFFFAOYSA-N

$$$$
DL-hPip
     RDKit          2D

 10 10  0  0  0  0  0  0  0  0999 V2000
    1.3040   -1.4730    0.0000 N   0  0  0  0  0  0  0  0  0  0  0  0
    0.1701   -0.4910    0.0000 C   0  0  0  0  0  0  0  0  0  0  0  0
    0.4536    0.9820    0.0000 C   0  0  0  0  0  0  0  0  0  0  0  0
    1.8709    1.4730    0.0000 C   0  0  0  0  0  0  0  0  0  0  0  0
    3.0048    0.4910    0.0000 C   0  0  0  0  0  0  0  0  0  0  0  0
    2.7213   -0.9820    0.0000 C   0  0  0  0  0  0  0  0  0  0  0  0
   -1.2473   -0.9820    0.0000 C   0  0  0  0  0  0  0  0  0  0  0  0
   -2.3812   -0.0000    0.0000 C   0  0  0  0  0  0  0  0  0  0  0  0
   -2.0977    1.4730    0.0000 O   0  0  0  0  0  0  0  0  0  0  0  0
   -3.7985   -0.4910    0.0000 O   0  0  0  0  0  0  0  0  0  0  0  0
  1  2  1  0
  2  3  1  0
  3  4  1  0
  4  5  1  0
  5  6  1  0
  2  7  1  0
  7  8  1  0
  8  9  2  0
  8 10  1  0
  6  1  1  0
M  END
>  <rName>  (1445) 
DL-hPip

>  <PQ_SYMBOL>  (1445) 
DL-hPip

>  <FULL_NAME>  (1445) 
2-(piperidin-2-yl)acetic acid

>  <IUPAC_CONDENSED>  (1445) 
DL-hPip

>  <IUPAC>  (1445) 
2-(piperidin-2-yl)acetic acid

>  <TYPE>  (1445) 
Backbone

>  <CLASS>  (1445) 
beta

>  <ANALOG>  (1445) 
Pro

>  <MOL_WT>  (1445) 
143.186

>  <LOGP>  (1445) 
0.6032

>  <TPSA>  (1445) 
49.33

>  <POPULARITY>  (1445) 
11.5

>  <PROTECTED>  (1445) 
TRUE

>  <SMILES>  (1445) 
N1C(CCCC1)CC(=O)O

>  <INCHIKEY>  (1445) 
PRNLNZMJMCUWNV-UHFFFAOYSA-N

$$$$
Abu_pyrid3yl
     RDKit          2D

 13 13  0  0  0  0  0  0  0  0999 V2000
   -2.6715   -1.9340    0.0000 N   0  0  0  0  0  0  0  0  0  0  0  0
   -2.4130   -0.4565    0.0000 C   0  0  0  0  0  0  0  0  0  0  0  0
   -1.0042    0.0585    0.0000 C   0  0  0  0  0  0  0  0  0  0  0  0
    0.1462   -0.9041    0.0000 C   0  0  0  0  0  0  0  0  0  0  0  0
    1.5550   -0.3891    0.0000 C   0  0  0  0  0  0  0  0  0  0  0  0
    1.8135    1.0885    0.0000 C   0  0  0  0  0  0  0  0  0  0  0  0
    3.2223    1.6034    0.0000 C   0  0  0  0  0  0  0  0  0  0  0  0
    4.3727    0.6408    0.0000 C   0  0  0  0  0  0  0  0  0  0  0  0
    4.1143   -0.8367    0.0000 N   0  0  0  0  0  0  0  0  0  0  0  0
    2.7054   -1.3517    0.0000 C   0  0  0  0  0  0  0  0  0  0  0  0
   -3.5634    0.5061    0.0000 C   0  0  0  0  0  0  0  0  0  0  0  0
   -3.3050    1.9837    0.0000 O   0  0  0  0  0  0  0  0  0  0  0  0
   -4.9723   -0.0089    0.0000 O   0  0  0  0  0  0  0  0  0  0  0  0
  2  1  1  6
  2  3  1  0
  3  4  1  0
  4  5  1  0
  5  6  2  0
  6  7  1  0
  7  8  2  0
  8  9  1  0
  9 10  2  0
  2 11  1  0
 11 12  2  0
 11 13  1  0
 10  5  1  0
M  END
>  <rName>  (1446) 
Abu_pyrid3yl

>  <PQ_SYMBOL>  (1446) 
Abu_pyrid3yl

>  <FULL_NAME>  (1446) 
(S)-2-amino-4-(pyridin-3-yl)butanoic acid

>  <IUPAC_CONDENSED>  (1446) 
Abu(pyrid-3-yl)

>  <IUPAC>  (1446) 
(2S)-2-amino-4-(pyridin-3-yl)butanoic acid

>  <TYPE>  (1446) 
Backbone

>  <CLASS>  (1446) 
alpha

>  <ANALOG>  (1446) 
Phe

>  <MOL_WT>  (1446) 
180.207

>  <LOGP>  (1446) 
0.42609999999999965

>  <TPSA>  (1446) 
76.21

>  <POPULARITY>  (1446) 
5.9

>  <PROTECTED>  (1446) 
TRUE

>  <SMILES>  (1446) 
N[C@@H](CCc1(cccnc1))C(=O)O

>  <INCHIKEY>  (1446) 
DKDFDEKVGHBVIX-QMMMGPOBSA-N

$$$$
Abu_pyrid4yl
     RDKit          2D

 13 13  0  0  0  0  0  0  0  0999 V2000
   -2.6715   -1.9340    0.0000 N   0  0  0  0  0  0  0  0  0  0  0  0
   -2.4130   -0.4565    0.0000 C   0  0  0  0  0  0  0  0  0  0  0  0
   -1.0042    0.0585    0.0000 C   0  0  0  0  0  0  0  0  0  0  0  0
    0.1462   -0.9041    0.0000 C   0  0  0  0  0  0  0  0  0  0  0  0
    1.5550   -0.3891    0.0000 C   0  0  0  0  0  0  0  0  0  0  0  0
    1.8135    1.0885    0.0000 C   0  0  0  0  0  0  0  0  0  0  0  0
    3.2223    1.6034    0.0000 C   0  0  0  0  0  0  0  0  0  0  0  0
    4.3727    0.6408    0.0000 N   0  0  0  0  0  0  0  0  0  0  0  0
    4.1143   -0.8367    0.0000 C   0  0  0  0  0  0  0  0  0  0  0  0
    2.7054   -1.3517    0.0000 C   0  0  0  0  0  0  0  0  0  0  0  0
   -3.5634    0.5061    0.0000 C   0  0  0  0  0  0  0  0  0  0  0  0
   -3.3050    1.9837    0.0000 O   0  0  0  0  0  0  0  0  0  0  0  0
   -4.9723   -0.0089    0.0000 O   0  0  0  0  0  0  0  0  0  0  0  0
  2  1  1  6
  2  3  1  0
  3  4  1  0
  4  5  1  0
  5  6  1  0
  6  7  2  0
  7  8  1  0
  8  9  2  0
  9 10  1  0
  2 11  1  0
 11 12  2  0
 11 13  1  0
 10  5  2  0
M  END
>  <rName>  (1447) 
Abu_pyrid4yl

>  <PQ_SYMBOL>  (1447) 
Abu_pyrid4yl

>  <FULL_NAME>  (1447) 
(S)-2-amino-4-(pyridin-4-yl)butanoic acid

>  <IUPAC_CONDENSED>  (1447) 
Abu(pyrid-4-yl)

>  <IUPAC>  (1447) 
(2S)-2-amino-4-(pyridin-4-yl)butanoic acid

>  <TYPE>  (1447) 
Backbone

>  <CLASS>  (1447) 
alpha

>  <ANALOG>  (1447) 
Phe

>  <MOL_WT>  (1447) 
180.207

>  <LOGP>  (1447) 
0.42609999999999965

>  <TPSA>  (1447) 
76.21

>  <POPULARITY>  (1447) 
7.5

>  <PROTECTED>  (1447) 
TRUE

>  <SMILES>  (1447) 
N[C@@H](CCc1(ccncc1))C(=O)O

>  <INCHIKEY>  (1447) 
WHCQVPISOOTNON-QMMMGPOBSA-N

$$$$
hPhe_3CN
     RDKit          2D

 15 15  0  0  0  0  0  0  0  0999 V2000
   -3.1744   -2.1174    0.0000 N   0  0  0  0  0  0  0  0  0  0  0  0
   -3.1350   -0.6179    0.0000 C   0  0  0  0  0  0  0  0  0  0  0  0
   -1.8167    0.0977    0.0000 C   0  0  0  0  0  0  0  0  0  0  0  0
   -0.5378   -0.6861    0.0000 C   0  0  0  0  0  0  0  0  0  0  0  0
    0.7805    0.0295    0.0000 C   0  0  0  0  0  0  0  0  0  0  0  0
    0.8199    1.5290    0.0000 C   0  0  0  0  0  0  0  0  0  0  0  0
    2.1382    2.2446    0.0000 C   0  0  0  0  0  0  0  0  0  0  0  0
    3.4170    1.4608    0.0000 C   0  0  0  0  0  0  0  0  0  0  0  0
    3.3776   -0.0387    0.0000 C   0  0  0  0  0  0  0  0  0  0  0  0
    4.6565   -0.8226    0.0000 C   0  0  0  0  0  0  0  0  0  0  0  0
    5.9354   -1.6064    0.0000 N   0  0  0  0  0  0  0  0  0  0  0  0
    2.0594   -0.7543    0.0000 C   0  0  0  0  0  0  0  0  0  0  0  0
   -4.4139    0.1660    0.0000 C   0  0  0  0  0  0  0  0  0  0  0  0
   -4.3745    1.6655    0.0000 O   0  0  0  0  0  0  0  0  0  0  0  0
   -5.7322   -0.5496    0.0000 O   0  0  0  0  0  0  0  0  0  0  0  0
  2  1  1  6
  2  3  1  0
  3  4  1  0
  4  5  1  0
  5  6  2  0
  6  7  1  0
  7  8  2  0
  8  9  1  0
  9 10  1  0
 10 11  3  0
  9 12  2  0
  2 13  1  0
 13 14  2  0
 13 15  1  0
 12  5  1  0
M  END
>  <rName>  (1448) 
hPhe_3CN

>  <PQ_SYMBOL>  (1448) 
hPhe_3CN

>  <FULL_NAME>  (1448) 
(S)-2-amino-4-(3-cyanophenyl)butanoic acid

>  <IUPAC_CONDENSED>  (1448) 
hPhe(3-CN)

>  <IUPAC>  (1448) 
(2S)-2-amino-4-(3-(nitrilomethyl)phenyl)butanoic acid

>  <TYPE>  (1448) 
Backbone

>  <CLASS>  (1448) 
alpha

>  <ANALOG>  (1448) 
Phe

>  <MOL_WT>  (1448) 
204.22899999999998

>  <LOGP>  (1448) 
0.9027799999999999

>  <TPSA>  (1448) 
87.11

>  <POPULARITY>  (1448) 
3.9

>  <PROTECTED>  (1448) 
TRUE

>  <SMILES>  (1448) 
N[C@@H](CCc1(cccc(C#N)c1))C(=O)O

>  <INCHIKEY>  (1448) 
UHVSGOJXLBBKAN-JTQLQIEISA-N

$$$$
Phe_4Ph_4NH2
     RDKit          2D

 19 20  0  0  0  0  0  0  0  0999 V2000
   -3.6454    1.7385    0.0000 N   0  0  0  0  0  0  0  0  0  0  0  0
   -4.2241    0.3546    0.0000 C   0  0  0  0  0  0  0  0  0  0  0  0
   -3.3150   -0.8385    0.0000 C   0  0  0  0  0  0  0  0  0  0  0  0
   -1.8272   -0.6478    0.0000 C   0  0  0  0  0  0  0  0  0  0  0  0
   -1.2485    0.7361    0.0000 C   0  0  0  0  0  0  0  0  0  0  0  0
    0.2394    0.9268    0.0000 C   0  0  0  0  0  0  0  0  0  0  0  0
    1.1485   -0.2664    0.0000 C   0  0  0  0  0  0  0  0  0  0  0  0
    0.5697   -1.6502    0.0000 C   0  0  0  0  0  0  0  0  0  0  0  0
   -0.9181   -1.8409    0.0000 C   0  0  0  0  0  0  0  0  0  0  0  0
    2.6363   -0.0757    0.0000 C   0  0  0  0  0  0  0  0  0  0  0  0
    3.5454   -1.2688    0.0000 C   0  0  0  0  0  0  0  0  0  0  0  0
    5.0332   -1.0781    0.0000 C   0  0  0  0  0  0  0  0  0  0  0  0
    5.6119    0.3058    0.0000 C   0  0  0  0  0  0  0  0  0  0  0  0
    7.0998    0.4965    0.0000 N   0  0  0  0  0  0  0  0  0  0  0  0
    4.7029    1.4989    0.0000 C   0  0  0  0  0  0  0  0  0  0  0  0
    3.2150    1.3082    0.0000 C   0  0  0  0  0  0  0  0  0  0  0  0
   -5.7119    0.1639    0.0000 C   0  0  0  0  0  0  0  0  0  0  0  0
   -6.2907   -1.2199    0.0000 O   0  0  0  0  0  0  0  0  0  0  0  0
   -6.6210    1.3571    0.0000 O   0  0  0  0  0  0  0  0  0  0  0  0
  2  1  1  1
  2  3  1  0
  3  4  1  0
  4  5  1  0
  5  6  2  0
  6  7  1  0
  7  8  2  0
  8  9  1  0
  7 10  1  0
 10 11  1  0
 11 12  2  0
 12 13  1  0
 13 14  1  0
 13 15  2  0
 15 16  1  0
  2 17  1  0
 17 18  2  0
 17 19  1  0
  9  4  2  0
 16 10  2  0
M  END
>  <rName>  (1449) 
Phe_4Ph_4NH2

>  <PQ_SYMBOL>  (1449) 
Phe_4Ph_4NH2

>  <FULL_NAME>  (1449) 
(S)-2-amino-3-(4'-amino-[1,1'-biphenyl]-4-yl)propanoic acid

>  <IUPAC_CONDENSED>  (1449) 
Phe(4-Ph(4-NH2))

>  <IUPAC>  (1449) 
(2S)-2-amino-3-(4-(4-aminophenyl)phenyl)propanoic acid

>  <TYPE>  (1449) 
Backbone

>  <CLASS>  (1449) 
alpha

>  <ANALOG>  (1449) 
Phe

>  <MOL_WT>  (1449) 
256.30499999999995

>  <LOGP>  (1449) 
1.8902

>  <TPSA>  (1449) 
89.34

>  <POPULARITY>  (1449) 
4.5

>  <PROTECTED>  (1449) 
TRUE

>  <SMILES>  (1449) 
N[C@@H](Cc1(ccc(cc1)c2(ccc(N)cc2)))C(=O)O

>  <INCHIKEY>  (1449) 
NZPZPWPZATZTFX-AWEZNQCLSA-N

$$$$
NMe-Tyr_allyl
     RDKit          2D

 17 17  0  0  0  0  0  0  0  0999 V2000
   -2.8516    1.3570    0.0000 N   0  0  0  0  0  0  0  0  0  0  0  0
   -3.9856    2.3389    0.0000 C   0  0  0  0  0  0  0  0  0  0  0  0
   -3.1349   -0.1160    0.0000 C   0  0  0  0  0  0  0  0  0  0  0  0
   -2.0008   -1.0978    0.0000 C   0  0  0  0  0  0  0  0  0  0  0  0
   -0.5835   -0.6066    0.0000 C   0  0  0  0  0  0  0  0  0  0  0  0
   -0.3003    0.8664    0.0000 C   0  0  0  0  0  0  0  0  0  0  0  0
    1.1170    1.3576    0.0000 C   0  0  0  0  0  0  0  0  0  0  0  0
    2.2511    0.3758    0.0000 C   0  0  0  0  0  0  0  0  0  0  0  0
    3.6684    0.8670    0.0000 O   0  0  0  0  0  0  0  0  0  0  0  0
    4.8024   -0.1149    0.0000 C   0  0  0  0  0  0  0  0  0  0  0  0
    6.2197    0.3763    0.0000 C   0  0  0  0  0  0  0  0  0  0  0  0
    7.3537   -0.6055    0.0000 C   0  0  0  0  0  0  0  0  0  0  0  0
    1.9678   -1.0972    0.0000 C   0  0  0  0  0  0  0  0  0  0  0  0
    0.5505   -1.5884    0.0000 C   0  0  0  0  0  0  0  0  0  0  0  0
   -4.5522   -0.6072    0.0000 C   0  0  0  0  0  0  0  0  0  0  0  0
   -4.8354   -2.0802    0.0000 O   0  0  0  0  0  0  0  0  0  0  0  0
   -5.6862    0.3747    0.0000 O   0  0  0  0  0  0  0  0  0  0  0  0
  1  2  1  0
  1  3  1  0
  3  4  1  1
  4  5  1  0
  5  6  1  0
  6  7  2  0
  7  8  1  0
  8  9  1  0
  9 10  1  0
 10 11  1  0
 11 12  2  0
  8 13  2  0
 13 14  1  0
  3 15  1  0
 15 16  2  0
 15 17  1  0
 14  5  2  0
M  END
>  <rName>  (1450) 
NMe-Tyr_allyl

>  <PQ_SYMBOL>  (1450) 
NMe-Tyr_allyl

>  <FULL_NAME>  (1450) 
(S)-3-(4-(allyloxy)phenyl)-2-(methylamino)propanoic acid

>  <IUPAC_CONDENSED>  (1450) 
Me-Tyr(allyl)

>  <IUPAC>  (1450) 
(2S)-2-(methylamino)-3-(4-((prop-2-en-1-yl)oxy)phenyl)propanoic acid

>  <TYPE>  (1450) 
Backbone

>  <CLASS>  (1450) 
alpha

>  <ANALOG>  (1450) 
Tyr

>  <MOL_WT>  (1450) 
235.28299999999996

>  <LOGP>  (1450) 
1.4665

>  <TPSA>  (1450) 
58.56

>  <POPULARITY>  (1450) 
6.4

>  <PROTECTED>  (1450) 
TRUE

>  <SMILES>  (1450) 
N(C)[C@@H](Cc1(ccc(OCC=C)cc1))C(=O)O

>  <INCHIKEY>  (1450) 
KPNYHJRQXIMURF-LBPRGKRZSA-N

$$$$
Cys_benzhydryl_44diSOMe
     RDKit          2D

 26 27  0  0  0  0  0  0  0  0999 V2000
   -1.6086   -4.6847    0.0000 N   0  0  0  0  0  0  0  0  0  0  0  0
   -2.4869   -3.4687    0.0000 C   0  0  0  0  0  0  0  0  0  0  0  0
   -1.8730   -2.1001    0.0000 C   0  0  0  0  0  0  0  0  0  0  0  0
   -0.3808   -1.9474    0.0000 S   0  0  0  0  0  0  0  0  0  0  0  0
    0.2332   -0.5788    0.0000 C   0  0  0  0  0  0  0  0  0  0  0  0
    1.7254   -0.4262    0.0000 C   0  0  0  0  0  0  0  0  0  0  0  0
    2.6037   -1.6422    0.0000 C   0  0  0  0  0  0  0  0  0  0  0  0
    4.0959   -1.4896    0.0000 C   0  0  0  0  0  0  0  0  0  0  0  0
    4.7098   -0.1210    0.0000 C   0  0  0  0  0  0  0  0  0  0  0  0
    3.8315    1.0950    0.0000 C   0  0  0  0  0  0  0  0  0  0  0  0
    2.3393    0.9424    0.0000 C   0  0  0  0  0  0  0  0  0  0  0  0
    6.2020    0.0316    0.0000 S   0  0  0  0  0  0  0  0  0  0  0  0
    6.8160    1.4003    0.0000 O   0  0  0  0  0  0  0  0  0  0  0  0
    7.0803   -1.1843    0.0000 C   0  0  0  0  0  0  0  0  0  0  0  0
   -0.6451    0.6372    0.0000 C   0  0  0  0  0  0  0  0  0  0  0  0
   -0.0312    2.0058    0.0000 C   0  0  0  0  0  0  0  0  0  0  0  0
   -0.9094    3.2217    0.0000 C   0  0  0  0  0  0  0  0  0  0  0  0
   -2.4017    3.0691    0.0000 C   0  0  0  0  0  0  0  0  0  0  0  0
   -3.0156    1.7005    0.0000 C   0  0  0  0  0  0  0  0  0  0  0  0
   -2.1373    0.4845    0.0000 C   0  0  0  0  0  0  0  0  0  0  0  0
   -3.2799    4.2851    0.0000 S   0  0  0  0  0  0  0  0  0  0  0  0
   -4.7722    4.1325    0.0000 O   0  0  0  0  0  0  0  0  0  0  0  0
   -2.6660    5.6537    0.0000 C   0  0  0  0  0  0  0  0  0  0  0  0
   -3.9791   -3.6213    0.0000 C   0  0  0  0  0  0  0  0  0  0  0  0
   -4.8574   -2.4053    0.0000 O   0  0  0  0  0  0  0  0  0  0  0  0
   -4.5931   -4.9899    0.0000 O   0  0  0  0  0  0  0  0  0  0  0  0
  2  1  1  6
  2  3  1  0
  3  4  1  0
  4  5  1  0
  5  6  1  0
  6  7  1  0
  7  8  2  0
  8  9  1  0
  9 10  2  0
 10 11  1  0
  9 12  1  0
 12 13  2  0
 12 14  1  0
  5 15  1  0
 15 16  1  0
 16 17  2  0
 17 18  1  0
 18 19  2  0
 19 20  1  0
 18 21  1  0
 21 22  2  0
 21 23  1  0
  2 24  1  0
 24 25  2  0
 24 26  1  0
 11  6  2  0
 20 15  2  0
M  END
>  <rName>  (1451) 
Cys_benzhydryl_44diSOMe

>  <PQ_SYMBOL>  (1451) 
Cys_benzhydryl_44diSOMe

>  <FULL_NAME>  (1451) 
S-(bis(4-(methylsulfinyl)phenyl)methyl)-L-cysteine

>  <IUPAC_CONDENSED>  (1451) 
Cys(benzhydryl(4,4-diS(O)Me))

>  <IUPAC>  (1451) 
(2R)-2-amino-3-((bis(4-(methylsulfinyl)phenyl)methyl)sulfanyl)propanoic acid

>  <TYPE>  (1451) 
Backbone

>  <CLASS>  (1451) 
alpha

>  <ANALOG>  (1451) 
Cys

>  <MOL_WT>  (1451) 
411.5700000000001

>  <LOGP>  (1451) 
2.3959

>  <TPSA>  (1451) 
97.46000000000001

>  <POPULARITY>  (1451) 
2.7

>  <PROTECTED>  (1451) 
TRUE

>  <SMILES>  (1451) 
N[C@@H](CSC(c1(ccc(cc1)S(=O)C))c2(ccc(cc2)S(=O)C))C(=O)O

>  <INCHIKEY>  (1451) 
GSLUEVJBZOPUNZ-PICNDJGISA-N

$$$$
D-hArg_Me
     RDKit          2D

 14 13  0  0  0  0  0  0  0  0999 V2000
    3.4434   -1.8746    0.0000 N   0  0  0  0  0  0  0  0  0  0  0  0
    3.5124   -0.3762    0.0000 C   0  0  0  0  0  0  0  0  0  0  0  0
    2.2492    0.4328    0.0000 C   0  0  0  0  0  0  0  0  0  0  0  0
    0.9171   -0.2567    0.0000 C   0  0  0  0  0  0  0  0  0  0  0  0
   -0.3461    0.5522    0.0000 C   0  0  0  0  0  0  0  0  0  0  0  0
   -1.6783   -0.1373    0.0000 C   0  0  0  0  0  0  0  0  0  0  0  0
   -2.9415    0.6717    0.0000 N   0  0  0  0  0  0  0  0  0  0  0  0
   -4.2736   -0.0178    0.0000 C   0  0  0  0  0  0  0  0  0  0  0  0
   -4.3426   -1.5162    0.0000 N   0  0  0  0  0  0  0  0  0  0  0  0
   -5.5368    0.7911    0.0000 N   0  0  0  0  0  0  0  0  0  0  0  0
   -6.8689    0.1016    0.0000 C   0  0  0  0  0  0  0  0  0  0  0  0
    4.8445    0.3133    0.0000 C   0  0  0  0  0  0  0  0  0  0  0  0
    4.9135    1.8117    0.0000 O   0  0  0  0  0  0  0  0  0  0  0  0
    6.1077   -0.4956    0.0000 O   0  0  0  0  0  0  0  0  0  0  0  0
  2  1  1  6
  2  3  1  0
  3  4  1  0
  4  5  1  0
  5  6  1  0
  6  7  1  0
  7  8  1  0
  8  9  2  0
  8 10  1  0
 10 11  1  0
  2 12  1  0
 12 13  2  0
 12 14  1  0
M  END
>  <rName>  (1452) 
D-hArg_Me

>  <PQ_SYMBOL>  (1452) 
D-hArg_Me

>  <FULL_NAME>  (1452) 
N6-(N-methylcarbamimidoyl)-D-lysine

>  <IUPAC_CONDENSED>  (1452) 
D-hArg(Me)

>  <IUPAC>  (1452) 
(2R)-2-amino-6-(((imino)(methylamino)methyl)amino)hexanoic acid

>  <TYPE>  (1452) 
Backbone

>  <CLASS>  (1452) 
alpha

>  <ANALOG>  (1452) 
Arg

>  <MOL_WT>  (1452) 
202.258

>  <LOGP>  (1452) 
-0.6876299999999986

>  <TPSA>  (1452) 
111.23

>  <POPULARITY>  (1452) 
3.9

>  <PROTECTED>  (1452) 
TRUE

>  <SMILES>  (1452) 
N[C@H](CCCCNC(=N)NC)C(=O)O

>  <INCHIKEY>  (1452) 
BISBENXUJVLWNC-ZCFIWIBFSA-N

$$$$
NMe-Nva_53F
     RDKit          2D

 12 11  0  0  0  0  0  0  0  0999 V2000
   -2.3724    1.5350    0.0000 N   0  0  0  0  0  0  0  0  0  0  0  0
   -3.8290    1.1771    0.0000 C   0  0  0  0  0  0  0  0  0  0  0  0
   -1.3340    0.4525    0.0000 C   0  0  0  0  0  0  0  0  0  0  0  0
    0.1226    0.8105    0.0000 C   0  0  0  0  0  0  0  0  0  0  0  0
    1.1610   -0.2721    0.0000 C   0  0  0  0  0  0  0  0  0  0  0  0
    2.6176    0.0859    0.0000 C   0  0  0  0  0  0  0  0  0  0  0  0
    4.0743    0.4438    0.0000 F   0  0  0  0  0  0  0  0  0  0  0  0
    2.9756   -1.3708    0.0000 F   0  0  0  0  0  0  0  0  0  0  0  0
    2.2597    1.5425    0.0000 F   0  0  0  0  0  0  0  0  0  0  0  0
   -1.7524   -0.9880    0.0000 C   0  0  0  0  0  0  0  0  0  0  0  0
   -3.2090   -1.3459    0.0000 O   0  0  0  0  0  0  0  0  0  0  0  0
   -0.7140   -2.0705    0.0000 O   0  0  0  0  0  0  0  0  0  0  0  0
  1  2  1  0
  1  3  1  0
  3  4  1  1
  4  5  1  0
  5  6  1  0
  6  7  1  0
  6  8  1  0
  6  9  1  0
  3 10  1  0
 10 11  2  0
 10 12  1  0
M  END
>  <rName>  (1453) 
NMe-Nva_53F

>  <PQ_SYMBOL>  (1453) 
NMe-Nva_53F

>  <FULL_NAME>  (1453) 
(S)-5,5,5-trifluoro-2-(methylamino)pentanoic acid

>  <IUPAC_CONDENSED>  (1453) 
Me-Nva(5-3F)

>  <IUPAC>  (1453) 
(2S)-5,5,5-trifluoro-2-(methylamino)pentanoic acid

>  <TYPE>  (1453) 
Backbone

>  <CLASS>  (1453) 
alpha

>  <ANALOG>  (1453) 
X

>  <MOL_WT>  (1453) 
185.145

>  <LOGP>  (1453) 
1.0014999999999998

>  <TPSA>  (1453) 
49.33

>  <POPULARITY>  (1453) 
6.8

>  <PROTECTED>  (1453) 
TRUE

>  <SMILES>  (1453) 
N(C)[C@@H](CCC(F)(F)F)C(=O)O

>  <INCHIKEY>  (1453) 
AJGZUPHBUSKPNJ-BYPYZUCNSA-N

$$$$
bhGlu_Oallyl
     RDKit          2D

 14 13  0  0  0  0  0  0  0  0999 V2000
    2.2665    1.5946    0.0000 N   0  0  0  0  0  0  0  0  0  0  0  0
    2.1486    0.0993    0.0000 C   0  0  0  0  0  0  0  0  0  0  0  0
    0.7946   -0.5463    0.0000 C   0  0  0  0  0  0  0  0  0  0  0  0
   -0.4415    0.3035    0.0000 C   0  0  0  0  0  0  0  0  0  0  0  0
   -1.7954   -0.3421    0.0000 C   0  0  0  0  0  0  0  0  0  0  0  0
   -1.9133   -1.8374    0.0000 O   0  0  0  0  0  0  0  0  0  0  0  0
   -3.0315    0.5077    0.0000 O   0  0  0  0  0  0  0  0  0  0  0  0
   -4.3855   -0.1378    0.0000 C   0  0  0  0  0  0  0  0  0  0  0  0
   -5.6215    0.7119    0.0000 C   0  0  0  0  0  0  0  0  0  0  0  0
   -6.9755    0.0664    0.0000 C   0  0  0  0  0  0  0  0  0  0  0  0
    3.3846   -0.7505    0.0000 C   0  0  0  0  0  0  0  0  0  0  0  0
    4.7386   -0.1050    0.0000 C   0  0  0  0  0  0  0  0  0  0  0  0
    4.8565    1.3904    0.0000 O   0  0  0  0  0  0  0  0  0  0  0  0
    5.9747   -0.9547    0.0000 O   0  0  0  0  0  0  0  0  0  0  0  0
  2  1  1  6
  2  3  1  0
  3  4  1  0
  4  5  1  0
  5  6  2  0
  5  7  1  0
  7  8  1  0
  8  9  1  0
  9 10  2  0
  2 11  1  0
 11 12  1  0
 12 13  2  0
 12 14  1  0
M  END
>  <rName>  (1454) 
bhGlu_Oallyl

>  <PQ_SYMBOL>  (1454) 
bhGlu_Oallyl

>  <FULL_NAME>  (1454) 
(S)-6-(allyloxy)-3-amino-6-oxohexanoic acid

>  <IUPAC_CONDENSED>  (1454) 
bhGlu(Oallyl)

>  <IUPAC>  (1454) 
(3S)-3-amino-5-(((prop-2-en-1-yl)oxy)carbonyl)pentanoic acid

>  <TYPE>  (1454) 
Backbone

>  <CLASS>  (1454) 
beta

>  <ANALOG>  (1454) 
Glu

>  <MOL_WT>  (1454) 
201.22199999999995

>  <LOGP>  (1454) 
0.29779999999999957

>  <TPSA>  (1454) 
89.62000000000002

>  <POPULARITY>  (1454) 
3.1

>  <PROTECTED>  (1454) 
TRUE

>  <SMILES>  (1454) 
N[C@@H](CCC(=O)OCC=C)CC(=O)O

>  <INCHIKEY>  (1454) 
ZGRYWNXDCVYFFC-ZETCQYMHSA-N

$$$$
Lys_EtO2H
     RDKit          2D

 14 13  0  0  0  0  0  0  0  0999 V2000
    3.6801   -1.8657    0.0000 N   0  0  0  0  0  0  0  0  0  0  0  0
    3.6323   -0.3665    0.0000 C   0  0  0  0  0  0  0  0  0  0  0  0
    2.3100    0.3417    0.0000 C   0  0  0  0  0  0  0  0  0  0  0  0
    1.0355   -0.4493    0.0000 C   0  0  0  0  0  0  0  0  0  0  0  0
   -0.2868    0.2588    0.0000 C   0  0  0  0  0  0  0  0  0  0  0  0
   -1.5612   -0.5322    0.0000 C   0  0  0  0  0  0  0  0  0  0  0  0
   -2.8835    0.1760    0.0000 N   0  0  0  0  0  0  0  0  0  0  0  0
   -4.1580   -0.6151    0.0000 C   0  0  0  0  0  0  0  0  0  0  0  0
   -5.4803    0.0931    0.0000 C   0  0  0  0  0  0  0  0  0  0  0  0
   -5.5281    1.5923    0.0000 O   0  0  0  0  0  0  0  0  0  0  0  0
   -6.7547   -0.6980    0.0000 O   0  0  0  0  0  0  0  0  0  0  0  0
    4.9067    0.4246    0.0000 C   0  0  0  0  0  0  0  0  0  0  0  0
    4.8589    1.9238    0.0000 O   0  0  0  0  0  0  0  0  0  0  0  0
    6.2290   -0.2836    0.0000 O   0  0  0  0  0  0  0  0  0  0  0  0
  2  1  1  1
  2  3  1  0
  3  4  1  0
  4  5  1  0
  5  6  1  0
  6  7  1  0
  7  8  1  0
  8  9  1  0
  9 10  2  0
  9 11  1  0
  2 12  1  0
 12 13  2  0
 12 14  1  0
M  END
>  <rName>  (1455) 
Lys_EtO2H

>  <PQ_SYMBOL>  (1455) 
Lys_EtO2H

>  <FULL_NAME>  (1455) 
N6-(carboxymethyl)-L-lysine

>  <IUPAC_CONDENSED>  (1455) 
Lys(EtO2H)

>  <IUPAC>  (1455) 
(2S)-2-amino-6-((2-hydroxy-2-oxoethyl)amino)hexanoic acid

>  <TYPE>  (1455) 
Backbone

>  <CLASS>  (1455) 
alpha

>  <ANALOG>  (1455) 
Lys

>  <MOL_WT>  (1455) 
204.226

>  <LOGP>  (1455) 
-0.7571999999999992

>  <TPSA>  (1455) 
112.64999999999999

>  <POPULARITY>  (1455) 
6.7

>  <PROTECTED>  (1455) 
TRUE

>  <SMILES>  (1455) 
N[C@@H](CCCCNCC(=O)O)C(=O)O

>  <INCHIKEY>  (1455) 
NUXSIDPKKIEIMI-LURJTMIESA-N

$$$$
aMeSer_allyl
     RDKit          2D

 11 10  0  0  0  0  0  0  0  0999 V2000
   -0.6186    1.8190    0.0000 N   0  0  0  0  0  0  0  0  0  0  0  0
   -1.4256    0.5545    0.0000 C   0  0  0  0  0  0  0  0  0  0  0  0
   -2.6900    1.3614    0.0000 C   0  0  0  0  0  0  0  0  0  0  0  0
   -0.1611   -0.2524    0.0000 C   0  0  0  0  0  0  0  0  0  0  0  0
    1.1700    0.4391    0.0000 O   0  0  0  0  0  0  0  0  0  0  0  0
    2.4344   -0.3678    0.0000 C   0  0  0  0  0  0  0  0  0  0  0  0
    3.7655    0.3238    0.0000 C   0  0  0  0  0  0  0  0  0  0  0  0
    5.0299   -0.4832    0.0000 C   0  0  0  0  0  0  0  0  0  0  0  0
   -2.2325   -0.7100    0.0000 C   0  0  0  0  0  0  0  0  0  0  0  0
   -3.7310   -0.6433    0.0000 O   0  0  0  0  0  0  0  0  0  0  0  0
   -1.5409   -2.0410    0.0000 O   0  0  0  0  0  0  0  0  0  0  0  0
  1  2  1  0
  2  3  1  6
  2  4  1  0
  4  5  1  0
  5  6  1  0
  6  7  1  0
  7  8  2  0
  2  9  1  0
  9 10  2  0
  9 11  1  0
M  END
>  <rName>  (1456) 
aMeSer_allyl

>  <PQ_SYMBOL>  (1456) 
aMeSer_allyl

>  <FULL_NAME>  (1456) 
(S)-3-(allyloxy)-2-amino-2-methylpropanoic acid

>  <IUPAC_CONDENSED>  (1456) 
aMeSer(allyl)

>  <IUPAC>  (1456) 
(2S)-2-amino-2-(((prop-2-en-1-yl)oxy)methyl)propanoic acid

>  <TYPE>  (1456) 
Backbone

>  <CLASS>  (1456) 
alpha

>  <ANALOG>  (1456) 
Ser

>  <MOL_WT>  (1456) 
159.185

>  <LOGP>  (1456) 
-0.009000000000000397

>  <TPSA>  (1456) 
72.55

>  <POPULARITY>  (1456) 
4.4

>  <PROTECTED>  (1456) 
TRUE

>  <SMILES>  (1456) 
N[C@@](C)(COCC=C)C(=O)O

>  <INCHIKEY>  (1456) 
OFYKOCUXLKQTLH-ZETCQYMHSA-N

$$$$
D-Gly_CF3_Me
     RDKit          2D

 10  9  0  0  0  0  0  0  0  0999 V2000
    1.2240    1.7781    0.0000 N   0  0  0  0  0  0  0  0  0  0  0  0
    0.1277    0.7543    0.0000 C   0  0  0  0  0  0  0  0  0  0  0  0
   -0.8961    1.8506    0.0000 C   0  0  0  0  0  0  0  0  0  0  0  0
   -0.9686   -0.2694    0.0000 C   0  0  0  0  0  0  0  0  0  0  0  0
   -2.0649   -1.2932    0.0000 F   0  0  0  0  0  0  0  0  0  0  0  0
   -1.9924    0.8269    0.0000 F   0  0  0  0  0  0  0  0  0  0  0  0
   -0.0861   -1.4824    0.0000 F   0  0  0  0  0  0  0  0  0  0  0  0
    1.1515   -0.3420    0.0000 C   0  0  0  0  0  0  0  0  0  0  0  0
    0.8921   -1.8194    0.0000 O   0  0  0  0  0  0  0  0  0  0  0  0
    2.6128   -0.0035    0.0000 O   0  0  0  0  0  0  0  0  0  0  0  0
  1  2  1  0
  2  3  1  1
  2  4  1  0
  4  5  1  0
  4  6  1  0
  4  7  1  0
  2  8  1  0
  8  9  2  0
  8 10  1  0
M  END
>  <rName>  (1457) 
D-Gly_CF3_Me

>  <PQ_SYMBOL>  (1457) 
D-Gly_CF3_Me

>  <FULL_NAME>  (1457) 
(R)-2-amino-3,3,3-trifluoro-2-methylpropanoic acid

>  <IUPAC_CONDENSED>  (1457) 
D-Gly(CF3,Me)

>  <IUPAC>  (1457) 
(2R)-2-amino-2-(trifluoromethyl)propanoic acid

>  <TYPE>  (1457) 
Backbone

>  <CLASS>  (1457) 
alpha

>  <ANALOG>  (1457) 
X

>  <MOL_WT>  (1457) 
157.091

>  <LOGP>  (1457) 
0.3506999999999998

>  <TPSA>  (1457) 
63.32000000000001

>  <POPULARITY>  (1457) 
5.4

>  <PROTECTED>  (1457) 
TRUE

>  <SMILES>  (1457) 
N[C@@](C)(C(F)(F)F)C(=O)O

>  <INCHIKEY>  (1457) 
JBQBFDPQDFDHEC-GSVOUGTGSA-N

$$$$
D-acPrAla
     RDKit          2D

  9  9  0  0  0  0  0  0  0  0999 V2000
   -0.1081   -2.0917    0.0000 N   0  0  0  0  0  0  0  0  0  0  0  0
    0.4107   -0.6843    0.0000 C   0  0  0  0  0  0  0  0  0  0  0  0
    1.8181   -1.2030    0.0000 C   0  0  0  0  0  0  0  0  0  0  0  0
   -0.9967   -0.1655    0.0000 C   0  0  0  0  0  0  0  0  0  0  0  0
   -1.9562    0.9875    0.0000 C   0  0  0  0  0  0  0  0  0  0  0  0
   -2.4750   -0.4199    0.0000 C   0  0  0  0  0  0  0  0  0  0  0  0
    0.9295    0.7232    0.0000 C   0  0  0  0  0  0  0  0  0  0  0  0
   -0.0300    1.8762    0.0000 O   0  0  0  0  0  0  0  0  0  0  0  0
    2.4077    0.9776    0.0000 O   0  0  0  0  0  0  0  0  0  0  0  0
  1  2  1  0
  2  3  1  1
  2  4  1  0
  4  5  1  0
  5  6  1  0
  2  7  1  0
  7  8  2  0
  7  9  1  0
  6  4  1  0
M  END
>  <rName>  (1458) 
D-acPrAla

>  <PQ_SYMBOL>  (1458) 
D-acPrAla

>  <FULL_NAME>  (1458) 
(R)-2-amino-2-cyclopropylpropanoic acid hydrate

>  <IUPAC_CONDENSED>  (1458) 
D-acPrAla

>  <IUPAC>  (1458) 
(2R)-2-amino-2-cyclopropylpropanoic acid

>  <TYPE>  (1458) 
Backbone

>  <CLASS>  (1458) 
alpha

>  <ANALOG>  (1458) 
X

>  <MOL_WT>  (1458) 
129.15900000000002

>  <LOGP>  (1458) 
0.19839999999999985

>  <TPSA>  (1458) 
63.32000000000001

>  <POPULARITY>  (1458) 
6.4

>  <PROTECTED>  (1458) 
TRUE

>  <SMILES>  (1458) 
N[C@](C)(C1(CC1))C(=O)O

>  <INCHIKEY>  (1458) 
VRFYYCFVOBCXDL-ZCFIWIBFSA-N

$$$$
Phe_4CH2OPiv
     RDKit          2D

 20 20  0  0  0  0  0  0  0  0999 V2000
   -4.5082    1.6012    0.0000 N   0  0  0  0  0  0  0  0  0  0  0  0
   -4.8174    0.1334    0.0000 C   0  0  0  0  0  0  0  0  0  0  0  0
   -3.7009   -0.8682    0.0000 C   0  0  0  0  0  0  0  0  0  0  0  0
   -2.2752   -0.4021    0.0000 C   0  0  0  0  0  0  0  0  0  0  0  0
   -1.9660    1.0656    0.0000 C   0  0  0  0  0  0  0  0  0  0  0  0
   -0.5402    1.5318    0.0000 C   0  0  0  0  0  0  0  0  0  0  0  0
    0.5763    0.5301    0.0000 C   0  0  0  0  0  0  0  0  0  0  0  0
    0.2671   -0.9377    0.0000 C   0  0  0  0  0  0  0  0  0  0  0  0
   -1.1586   -1.4038    0.0000 C   0  0  0  0  0  0  0  0  0  0  0  0
    2.0021    0.9962    0.0000 C   0  0  0  0  0  0  0  0  0  0  0  0
    3.1186   -0.0055    0.0000 O   0  0  0  0  0  0  0  0  0  0  0  0
    4.5443    0.4606    0.0000 C   0  0  0  0  0  0  0  0  0  0  0  0
    4.8535    1.9284    0.0000 O   0  0  0  0  0  0  0  0  0  0  0  0
    5.6609   -0.5410    0.0000 C   0  0  0  0  0  0  0  0  0  0  0  0
    6.6625    0.5755    0.0000 C   0  0  0  0  0  0  0  0  0  0  0  0
    4.6592   -1.6576    0.0000 C   0  0  0  0  0  0  0  0  0  0  0  0
    6.7774   -1.5427    0.0000 C   0  0  0  0  0  0  0  0  0  0  0  0
   -6.2432   -0.3327    0.0000 C   0  0  0  0  0  0  0  0  0  0  0  0
   -6.5524   -1.8005    0.0000 O   0  0  0  0  0  0  0  0  0  0  0  0
   -7.3597    0.6690    0.0000 O   0  0  0  0  0  0  0  0  0  0  0  0
  2  1  1  1
  2  3  1  0
  3  4  1  0
  4  5  1  0
  5  6  2  0
  6  7  1  0
  7  8  2  0
  8  9  1  0
  7 10  1  0
 10 11  1  0
 11 12  1  0
 12 13  2  0
 12 14  1  0
 14 15  1  0
 14 16  1  0
 14 17  1  0
  2 18  1  0
 18 19  2  0
 18 20  1  0
  9  4  2  0
M  END
>  <rName>  (1459) 
Phe_4CH2OPiv

>  <PQ_SYMBOL>  (1459) 
Phe_4CH2OPiv

>  <FULL_NAME>  (1459) 
(S)-2-amino-3-(4-((pivaloyloxy)methyl)phenyl)propanoic acid

>  <IUPAC_CONDENSED>  (1459) 
Phe(4-CH2OPiv)

>  <IUPAC>  (1459) 
(2S)-2-amino-3-(4-((tert-butylcarbonyloxy)methyl)phenyl)propanoic acid

>  <TYPE>  (1459) 
Backbone

>  <CLASS>  (1459) 
alpha

>  <ANALOG>  (1459) 
Phe

>  <MOL_WT>  (1459) 
279.33599999999996

>  <LOGP>  (1459) 
1.7303000000000002

>  <TPSA>  (1459) 
89.62

>  <POPULARITY>  (1459) 
2.3

>  <PROTECTED>  (1459) 
TRUE

>  <SMILES>  (1459) 
N[C@@H](Cc1(ccc(cc1)COC(=O)C(C)(C)C))C(=O)O

>  <INCHIKEY>  (1459) 
PXBDSBSSXOLMHK-LBPRGKRZSA-N

$$$$
Phe_3MeNH2
     RDKit          2D

 14 14  0  0  0  0  0  0  0  0999 V2000
   -2.2742    1.6194    0.0000 N   0  0  0  0  0  0  0  0  0  0  0  0
   -2.3172    0.1200    0.0000 C   0  0  0  0  0  0  0  0  0  0  0  0
   -1.0402   -0.6669    0.0000 C   0  0  0  0  0  0  0  0  0  0  0  0
    0.2798    0.0456    0.0000 C   0  0  0  0  0  0  0  0  0  0  0  0
    0.3228    1.5450    0.0000 C   0  0  0  0  0  0  0  0  0  0  0  0
    1.6428    2.2574    0.0000 C   0  0  0  0  0  0  0  0  0  0  0  0
    2.9198    1.4705    0.0000 C   0  0  0  0  0  0  0  0  0  0  0  0
    2.8768   -0.0289    0.0000 C   0  0  0  0  0  0  0  0  0  0  0  0
    1.5568   -0.7414    0.0000 C   0  0  0  0  0  0  0  0  0  0  0  0
    4.1538   -0.8158    0.0000 C   0  0  0  0  0  0  0  0  0  0  0  0
    4.1108   -2.3152    0.0000 N   0  0  0  0  0  0  0  0  0  0  0  0
   -3.6372   -0.5924    0.0000 C   0  0  0  0  0  0  0  0  0  0  0  0
   -3.6802   -2.0918    0.0000 O   0  0  0  0  0  0  0  0  0  0  0  0
   -4.9142    0.1945    0.0000 O   0  0  0  0  0  0  0  0  0  0  0  0
  2  1  1  1
  2  3  1  0
  3  4  1  0
  4  5  2  0
  5  6  1  0
  6  7  2  0
  7  8  1  0
  8  9  2  0
  8 10  1  0
 10 11  1  0
  2 12  1  0
 12 13  2  0
 12 14  1  0
  9  4  1  0
M  END
>  <rName>  (1460) 
Phe_3MeNH2

>  <PQ_SYMBOL>  (1460) 
Phe_3MeNH2

>  <FULL_NAME>  (1460) 
(S)-2-amino-3-(3-(aminomethyl)phenyl)propanoic acid

>  <IUPAC_CONDENSED>  (1460) 
Phe(3-MeNH2)

>  <IUPAC>  (1460) 
(2S)-2-amino-3-(3-(aminomethyl)phenyl)propanoic acid

>  <TYPE>  (1460) 
Backbone

>  <CLASS>  (1460) 
alpha

>  <ANALOG>  (1460) 
Phe

>  <MOL_WT>  (1460) 
194.23399999999995

>  <LOGP>  (1460) 
0.09970000000000018

>  <TPSA>  (1460) 
89.34

>  <POPULARITY>  (1460) 
9.4

>  <PROTECTED>  (1460) 
TRUE

>  <SMILES>  (1460) 
N[C@@H](Cc1(cccc(c1)CN))C(=O)O

>  <INCHIKEY>  (1460) 
YBVDQQQEPCEKPR-VIFPVBQESA-N

$$$$
Pro_4Rallyl
     RDKit          2D

 11 11  0  0  0  0  0  0  0  0999 V2000
    1.1920   -1.6300    0.0000 N   0  0  0  0  0  0  0  0  0  0  0  0
    1.3323   -0.1366    0.0000 C   0  0  0  0  0  0  0  0  0  0  0  0
   -0.0446    0.4584    0.0000 C   0  0  0  0  0  0  0  0  0  0  0  0
   -1.0360   -0.6674    0.0000 C   0  0  0  0  0  0  0  0  0  0  0  0
   -2.5294   -0.5270    0.0000 C   0  0  0  0  0  0  0  0  0  0  0  0
   -3.1546    0.8365    0.0000 C   0  0  0  0  0  0  0  0  0  0  0  0
   -4.6480    0.9768    0.0000 C   0  0  0  0  0  0  0  0  0  0  0  0
   -0.2717   -1.9580    0.0000 C   0  0  0  0  0  0  0  0  0  0  0  0
    2.6230    0.6277    0.0000 C   0  0  0  0  0  0  0  0  0  0  0  0
    2.6065    2.1276    0.0000 O   0  0  0  0  0  0  0  0  0  0  0  0
    3.9303   -0.1079    0.0000 O   0  0  0  0  0  0  0  0  0  0  0  0
  1  2  1  0
  2  3  1  0
  3  4  1  0
  4  5  1  6
  5  6  1  0
  6  7  2  0
  4  8  1  0
  2  9  1  1
  9 10  2  0
  9 11  1  0
  8  1  1  0
M  END
>  <rName>  (1461) 
Pro_4Rallyl

>  <PQ_SYMBOL>  (1461) 
Pro_4Rallyl

>  <FULL_NAME>  (1461) 
(2S,4R)-4-allylpyrrolidine-2-carboxylic acid

>  <IUPAC_CONDENSED>  (1461) 
Pro(4R-allyl)

>  <IUPAC>  (1461) 
(2S,4R)-4-(prop-2-en-1-yl)pyrrolidine-2-carboxylic acid

>  <TYPE>  (1461) 
Backbone

>  <CLASS>  (1461) 
alpha

>  <ANALOG>  (1461) 
Pro

>  <MOL_WT>  (1461) 
155.197

>  <LOGP>  (1461) 
0.6251999999999998

>  <TPSA>  (1461) 
49.33

>  <POPULARITY>  (1461) 
5.8

>  <PROTECTED>  (1461) 
TRUE

>  <SMILES>  (1461) 
N1[C@@H](C[C@@H](CC=C)C1)C(=O)O

>  <INCHIKEY>  (1461) 
JMWRIQIIDLNILM-RQJHMYQMSA-N

$$$$
bAla_2SOH_3SPh_4F
     RDKit          2D

 14 14  0  0  0  0  0  0  0  0999 V2000
   -1.3920   -2.0726    0.0000 N   0  0  0  0  0  0  0  0  0  0  0  0
   -0.9084   -0.6527    0.0000 C   0  0  0  0  0  0  0  0  0  0  0  0
    0.5630   -0.3615    0.0000 C   0  0  0  0  0  0  0  0  0  0  0  0
    1.0466    1.0584    0.0000 C   0  0  0  0  0  0  0  0  0  0  0  0
    2.5180    1.3496    0.0000 C   0  0  0  0  0  0  0  0  0  0  0  0
    3.5060    0.2209    0.0000 C   0  0  0  0  0  0  0  0  0  0  0  0
    4.9774    0.5121    0.0000 F   0  0  0  0  0  0  0  0  0  0  0  0
    3.0224   -1.1991    0.0000 C   0  0  0  0  0  0  0  0  0  0  0  0
    1.5509   -1.4902    0.0000 C   0  0  0  0  0  0  0  0  0  0  0  0
   -1.8963    0.4760    0.0000 C   0  0  0  0  0  0  0  0  0  0  0  0
   -1.4128    1.8959    0.0000 O   0  0  0  0  0  0  0  0  0  0  0  0
   -3.3678    0.1848    0.0000 C   0  0  0  0  0  0  0  0  0  0  0  0
   -3.8514   -1.2351    0.0000 O   0  0  0  0  0  0  0  0  0  0  0  0
   -4.3557    1.3135    0.0000 O   0  0  0  0  0  0  0  0  0  0  0  0
  2  1  1  6
  2  3  1  0
  3  4  1  0
  4  5  2  0
  5  6  1  0
  6  7  1  0
  6  8  2  0
  8  9  1  0
  2 10  1  0
 10 11  1  1
 10 12  1  0
 12 13  2  0
 12 14  1  0
  9  3  2  0
M  END
>  <rName>  (1462) 
bAla_2SOH_3SPh_4F

>  <PQ_SYMBOL>  (1462) 
bAla_2SOH_3SPh_4F

>  <FULL_NAME>  (1462) 
(2S,3S)-3-amino-3-(4-fluorophenyl)-2-hydroxypropanoic acid

>  <IUPAC_CONDENSED>  (1462) 
bAla(2S-OH,3S-Ph(4-F))

>  <IUPAC>  (1462) 
(2S,3S)-3-amino-3-(4-fluorophenyl)-2-hydroxypropanoic acid

>  <TYPE>  (1462) 
Backbone

>  <CLASS>  (1462) 
beta

>  <ANALOG>  (1462) 
X

>  <MOL_WT>  (1462) 
199.18099999999998

>  <LOGP>  (1462) 
0.2710000000000002

>  <TPSA>  (1462) 
83.55

>  <POPULARITY>  (1462) 
4.9

>  <PROTECTED>  (1462) 
TRUE

>  <SMILES>  (1462) 
N[C@@H](c1(ccc(F)cc1))[C@H](O)C(=O)O

>  <INCHIKEY>  (1462) 
MGNTZYNDHDKPQD-YUMQZZPRSA-N

$$$$
bAla_3REt
     RDKit          2D

  8  7  0  0  0  0  0  0  0  0999 V2000
    0.7931    1.4169    0.0000 N   0  0  0  0  0  0  0  0  0  0  0  0
    0.8131   -0.0829    0.0000 C   0  0  0  0  0  0  0  0  0  0  0  0
    2.1220   -0.8156    0.0000 C   0  0  0  0  0  0  0  0  0  0  0  0
    3.4109   -0.0483    0.0000 C   0  0  0  0  0  0  0  0  0  0  0  0
   -0.4759   -0.8502    0.0000 C   0  0  0  0  0  0  0  0  0  0  0  0
   -1.7848   -0.1175    0.0000 C   0  0  0  0  0  0  0  0  0  0  0  0
   -1.8048    1.3823    0.0000 O   0  0  0  0  0  0  0  0  0  0  0  0
   -3.0737   -0.8848    0.0000 O   0  0  0  0  0  0  0  0  0  0  0  0
  2  1  1  6
  2  3  1  0
  3  4  1  0
  2  5  1  0
  5  6  1  0
  6  7  2  0
  6  8  1  0
M  END
>  <rName>  (1463) 
bAla_3REt

>  <PQ_SYMBOL>  (1463) 
bAla_3REt

>  <FULL_NAME>  (1463) 
(R)-3-aminopentanoic acid

>  <IUPAC_CONDENSED>  (1463) 
bAla(3R-Et)

>  <IUPAC>  (1463) 
(3R)-3-aminopentanoic acid

>  <TYPE>  (1463) 
Backbone

>  <CLASS>  (1463) 
beta

>  <ANALOG>  (1463) 
Ala

>  <MOL_WT>  (1463) 
117.14799999999998

>  <LOGP>  (1463) 
0.19839999999999985

>  <TPSA>  (1463) 
63.32000000000001

>  <POPULARITY>  (1463) 
16.1

>  <PROTECTED>  (1463) 
TRUE

>  <SMILES>  (1463) 
N[C@H](CC)CC(=O)O

>  <INCHIKEY>  (1463) 
QFRURJKLPJVRQY-SCSAIBSYSA-N

$$$$
bAla_2SOH_3SPh_3Me
     RDKit          2D

 14 14  0  0  0  0  0  0  0  0999 V2000
   -1.0270   -2.0473    0.0000 N   0  0  0  0  0  0  0  0  0  0  0  0
   -0.7622   -0.5709    0.0000 C   0  0  0  0  0  0  0  0  0  0  0  0
    0.6488   -0.0619    0.0000 C   0  0  0  0  0  0  0  0  0  0  0  0
    0.9135    1.4146    0.0000 C   0  0  0  0  0  0  0  0  0  0  0  0
    2.3245    1.9235    0.0000 C   0  0  0  0  0  0  0  0  0  0  0  0
    3.4708    0.9560    0.0000 C   0  0  0  0  0  0  0  0  0  0  0  0
    3.2061   -0.5204    0.0000 C   0  0  0  0  0  0  0  0  0  0  0  0
    4.3524   -1.4879    0.0000 C   0  0  0  0  0  0  0  0  0  0  0  0
    1.7951   -1.0294    0.0000 C   0  0  0  0  0  0  0  0  0  0  0  0
   -1.9085    0.3966    0.0000 C   0  0  0  0  0  0  0  0  0  0  0  0
   -1.6438    1.8731    0.0000 O   0  0  0  0  0  0  0  0  0  0  0  0
   -3.3195   -0.1124    0.0000 C   0  0  0  0  0  0  0  0  0  0  0  0
   -3.5842   -1.5888    0.0000 O   0  0  0  0  0  0  0  0  0  0  0  0
   -4.4658    0.8551    0.0000 O   0  0  0  0  0  0  0  0  0  0  0  0
  2  1  1  6
  2  3  1  0
  3  4  2  0
  4  5  1  0
  5  6  2  0
  6  7  1  0
  7  8  1  0
  7  9  2  0
  2 10  1  0
 10 11  1  1
 10 12  1  0
 12 13  2  0
 12 14  1  0
  9  3  1  0
M  END
>  <rName>  (1464) 
bAla_2SOH_3SPh_3Me

>  <PQ_SYMBOL>  (1464) 
bAla_2SOH_3SPh_3Me

>  <FULL_NAME>  (1464) 
(2S,3S)-3-amino-2-hydroxy-3-(m-tolyl)propanoic acid

>  <IUPAC_CONDENSED>  (1464) 
bAla(2S-OH,3S-Ph(3-Me))

>  <IUPAC>  (1464) 
(2S,3S)-3-amino-2-hydroxy-3-(3-methylphenyl)propanoic acid

>  <TYPE>  (1464) 
Backbone

>  <CLASS>  (1464) 
beta

>  <ANALOG>  (1464) 
X

>  <MOL_WT>  (1464) 
195.218

>  <LOGP>  (1464) 
0.44032000000000004

>  <TPSA>  (1464) 
83.55

>  <POPULARITY>  (1464) 
3.8

>  <PROTECTED>  (1464) 
TRUE

>  <SMILES>  (1464) 
N[C@@H](c1(cccc(C)c1))[C@H](O)C(=O)O

>  <INCHIKEY>  (1464) 
ALZYDSFTANAOHF-IUCAKERBSA-N

$$$$
D-Ala_4piperidyl
     RDKit          2D

 12 12  0  0  0  0  0  0  0  0999 V2000
   -1.2391    1.6805    0.0000 N   0  0  0  0  0  0  0  0  0  0  0  0
   -1.6184    0.2292    0.0000 C   0  0  0  0  0  0  0  0  0  0  0  0
   -0.5513   -0.8249    0.0000 C   0  0  0  0  0  0  0  0  0  0  0  0
    0.8952   -0.4278    0.0000 C   0  0  0  0  0  0  0  0  0  0  0  0
    1.2745    1.0235    0.0000 C   0  0  0  0  0  0  0  0  0  0  0  0
    2.7210    1.4206    0.0000 C   0  0  0  0  0  0  0  0  0  0  0  0
    3.7882    0.3665    0.0000 N   0  0  0  0  0  0  0  0  0  0  0  0
    3.4088   -1.0848    0.0000 C   0  0  0  0  0  0  0  0  0  0  0  0
    1.9624   -1.4819    0.0000 C   0  0  0  0  0  0  0  0  0  0  0  0
   -3.0649   -0.1679    0.0000 C   0  0  0  0  0  0  0  0  0  0  0  0
   -3.4442   -1.6191    0.0000 O   0  0  0  0  0  0  0  0  0  0  0  0
   -4.1321    0.8862    0.0000 O   0  0  0  0  0  0  0  0  0  0  0  0
  2  1  1  6
  2  3  1  0
  3  4  1  0
  4  5  1  0
  5  6  1  0
  6  7  1  0
  7  8  1  0
  8  9  1  0
  2 10  1  0
 10 11  2  0
 10 12  1  0
  9  4  1  0
M  END
>  <rName>  (1465) 
D-Ala_4piperidyl

>  <PQ_SYMBOL>  (1465) 
D-Ala_4piperidyl

>  <FULL_NAME>  (1465) 
(R)-2-amino-3-(piperidin-4-yl)propanoic acid

>  <IUPAC_CONDENSED>  (1465) 
D-Ala(4-piperidyl)

>  <IUPAC>  (1465) 
(2R)-2-amino-3-(piperidin-4-yl)propanoic acid

>  <TYPE>  (1465) 
Backbone

>  <CLASS>  (1465) 
alpha

>  <ANALOG>  (1465) 
Lys

>  <MOL_WT>  (1465) 
172.228

>  <LOGP>  (1465) 
-0.21200000000000047

>  <TPSA>  (1465) 
75.35

>  <POPULARITY>  (1465) 
5.7

>  <PROTECTED>  (1465) 
TRUE

>  <SMILES>  (1465) 
N[C@H](CC1(CCNCC1))C(=O)O

>  <INCHIKEY>  (1465) 
VVDNQYDGDFYGMM-SSDOTTSWSA-N

$$$$
hTyr_CF3
     RDKit          2D

 18 18  0  0  0  0  0  0  0  0999 V2000
   -4.6307   -1.9079    0.0000 N   0  0  0  0  0  0  0  0  0  0  0  0
   -4.3467   -0.4350    0.0000 C   0  0  0  0  0  0  0  0  0  0  0  0
   -2.9292    0.0555    0.0000 C   0  0  0  0  0  0  0  0  0  0  0  0
   -1.7956   -0.9268    0.0000 C   0  0  0  0  0  0  0  0  0  0  0  0
   -0.3781   -0.4363    0.0000 C   0  0  0  0  0  0  0  0  0  0  0  0
   -0.0941    1.0366    0.0000 C   0  0  0  0  0  0  0  0  0  0  0  0
    1.3234    1.5271    0.0000 C   0  0  0  0  0  0  0  0  0  0  0  0
    2.4570    0.5447    0.0000 C   0  0  0  0  0  0  0  0  0  0  0  0
    3.8745    1.0352    0.0000 O   0  0  0  0  0  0  0  0  0  0  0  0
    5.0080    0.0529    0.0000 C   0  0  0  0  0  0  0  0  0  0  0  0
    6.1416   -0.9295    0.0000 F   0  0  0  0  0  0  0  0  0  0  0  0
    5.9904    1.1865    0.0000 F   0  0  0  0  0  0  0  0  0  0  0  0
    4.0257   -1.0807    0.0000 F   0  0  0  0  0  0  0  0  0  0  0  0
    2.1730   -0.9281    0.0000 C   0  0  0  0  0  0  0  0  0  0  0  0
    0.7555   -1.4187    0.0000 C   0  0  0  0  0  0  0  0  0  0  0  0
   -5.4803    0.5474    0.0000 C   0  0  0  0  0  0  0  0  0  0  0  0
   -5.1963    2.0202    0.0000 O   0  0  0  0  0  0  0  0  0  0  0  0
   -6.8978    0.0568    0.0000 O   0  0  0  0  0  0  0  0  0  0  0  0
  2  1  1  6
  2  3  1  0
  3  4  1  0
  4  5  1  0
  5  6  1  0
  6  7  2  0
  7  8  1  0
  8  9  1  0
  9 10  1  0
 10 11  1  0
 10 12  1  0
 10 13  1  0
  8 14  2  0
 14 15  1  0
  2 16  1  0
 16 17  2  0
 16 18  1  0
 15  5  2  0
M  END
>  <rName>  (1466) 
hTyr_CF3

>  <PQ_SYMBOL>  (1466) 
hTyr_CF3

>  <FULL_NAME>  (1466) 
(S)-2-amino-4-(4-(trifluoromethoxy)phenyl)butanoic acid

>  <IUPAC_CONDENSED>  (1466) 
hTyr(CF3)

>  <IUPAC>  (1466) 
(2S)-2-amino-4-(4-((trifluoromethyl)oxy)phenyl)butanoic acid

>  <TYPE>  (1466) 
Backbone

>  <CLASS>  (1466) 
alpha

>  <ANALOG>  (1466) 
Tyr

>  <MOL_WT>  (1466) 
263.2149999999999

>  <LOGP>  (1466) 
1.9297

>  <TPSA>  (1466) 
72.55

>  <POPULARITY>  (1466) 
3.2

>  <PROTECTED>  (1466) 
TRUE

>  <SMILES>  (1466) 
N[C@@H](CCc1(ccc(OC(F)(F)F)cc1))C(=O)O

>  <INCHIKEY>  (1466) 
QIVLRGSCOXBFIB-VIFPVBQESA-N

$$$$
hPhe_2Me
     RDKit          2D

 14 14  0  0  0  0  0  0  0  0999 V2000
   -2.7345   -1.9034    0.0000 N   0  0  0  0  0  0  0  0  0  0  0  0
   -2.5673   -0.4128    0.0000 C   0  0  0  0  0  0  0  0  0  0  0  0
   -1.1928    0.1877    0.0000 C   0  0  0  0  0  0  0  0  0  0  0  0
    0.0146   -0.7024    0.0000 C   0  0  0  0  0  0  0  0  0  0  0  0
    1.3891   -0.1019    0.0000 C   0  0  0  0  0  0  0  0  0  0  0  0
    1.5563    1.3887    0.0000 C   0  0  0  0  0  0  0  0  0  0  0  0
    2.9309    1.9892    0.0000 C   0  0  0  0  0  0  0  0  0  0  0  0
    4.1382    1.0991    0.0000 C   0  0  0  0  0  0  0  0  0  0  0  0
    3.9710   -0.3916    0.0000 C   0  0  0  0  0  0  0  0  0  0  0  0
    2.5965   -0.9921    0.0000 C   0  0  0  0  0  0  0  0  0  0  0  0
    2.4292   -2.4827    0.0000 C   0  0  0  0  0  0  0  0  0  0  0  0
   -3.7746    0.4773    0.0000 C   0  0  0  0  0  0  0  0  0  0  0  0
   -3.6074    1.9680    0.0000 O   0  0  0  0  0  0  0  0  0  0  0  0
   -5.1492   -0.1232    0.0000 O   0  0  0  0  0  0  0  0  0  0  0  0
  2  1  1  6
  2  3  1  0
  3  4  1  0
  4  5  1  0
  5  6  2  0
  6  7  1  0
  7  8  2  0
  8  9  1  0
  9 10  2  0
 10 11  1  0
  2 12  1  0
 12 13  2  0
 12 14  1  0
 10  5  1  0
M  END
>  <rName>  (1467) 
hPhe_2Me

>  <PQ_SYMBOL>  (1467) 
hPhe_2Me

>  <FULL_NAME>  (1467) 
(S)-2-amino-4-(o-tolyl)butanoic acid

>  <IUPAC_CONDENSED>  (1467) 
hPhe(2-Me)

>  <IUPAC>  (1467) 
(2S)-2-amino-4-(2-methylphenyl)butanoic acid

>  <TYPE>  (1467) 
Backbone

>  <CLASS>  (1467) 
alpha

>  <ANALOG>  (1467) 
Phe

>  <MOL_WT>  (1467) 
193.24599999999995

>  <LOGP>  (1467) 
1.3395199999999998

>  <TPSA>  (1467) 
63.32000000000001

>  <POPULARITY>  (1467) 
8.1

>  <PROTECTED>  (1467) 
TRUE

>  <SMILES>  (1467) 
N[C@@H](CCc1(ccccc1C))C(=O)O

>  <INCHIKEY>  (1467) 
UIINSJBTFLRMLY-JTQLQIEISA-N

$$$$
hPhe_2OCF3
     RDKit          2D

 18 18  0  0  0  0  0  0  0  0999 V2000
   -3.0669   -2.2009    0.0000 N   0  0  0  0  0  0  0  0  0  0  0  0
   -3.3852   -0.7351    0.0000 C   0  0  0  0  0  0  0  0  0  0  0  0
   -2.2749    0.2735    0.0000 C   0  0  0  0  0  0  0  0  0  0  0  0
   -0.8463   -0.1838    0.0000 C   0  0  0  0  0  0  0  0  0  0  0  0
    0.2640    0.8248    0.0000 C   0  0  0  0  0  0  0  0  0  0  0  0
   -0.0543    2.2906    0.0000 C   0  0  0  0  0  0  0  0  0  0  0  0
    1.0560    3.2992    0.0000 C   0  0  0  0  0  0  0  0  0  0  0  0
    2.4846    2.8420    0.0000 C   0  0  0  0  0  0  0  0  0  0  0  0
    2.8029    1.3761    0.0000 C   0  0  0  0  0  0  0  0  0  0  0  0
    1.6926    0.3676    0.0000 C   0  0  0  0  0  0  0  0  0  0  0  0
    2.0109   -1.0983    0.0000 O   0  0  0  0  0  0  0  0  0  0  0  0
    3.4395   -1.5555    0.0000 C   0  0  0  0  0  0  0  0  0  0  0  0
    4.8681   -2.0128    0.0000 F   0  0  0  0  0  0  0  0  0  0  0  0
    2.9823   -2.9841    0.0000 F   0  0  0  0  0  0  0  0  0  0  0  0
    3.8968   -0.1269    0.0000 F   0  0  0  0  0  0  0  0  0  0  0  0
   -4.8138   -0.2779    0.0000 C   0  0  0  0  0  0  0  0  0  0  0  0
   -5.1321    1.1880    0.0000 O   0  0  0  0  0  0  0  0  0  0  0  0
   -5.9241   -1.2864    0.0000 O   0  0  0  0  0  0  0  0  0  0  0  0
  2  1  1  6
  2  3  1  0
  3  4  1  0
  4  5  1  0
  5  6  2  0
  6  7  1  0
  7  8  2  0
  8  9  1  0
  9 10  2  0
 10 11  1  0
 11 12  1  0
 12 13  1  0
 12 14  1  0
 12 15  1  0
  2 16  1  0
 16 17  2  0
 16 18  1  0
 10  5  1  0
M  END
>  <rName>  (1468) 
hPhe_2OCF3

>  <PQ_SYMBOL>  (1468) 
hPhe_2OCF3

>  <FULL_NAME>  (1468) 
(S)-2-amino-4-(2-(trifluoromethoxy)phenyl)butanoic acid

>  <IUPAC_CONDENSED>  (1468) 
hPhe(2-OCF3)

>  <IUPAC>  (1468) 
(2S)-2-amino-4-(2-((trifluoromethyl)oxy)phenyl)butanoic acid

>  <TYPE>  (1468) 
Backbone

>  <CLASS>  (1468) 
alpha

>  <ANALOG>  (1468) 
Tyr

>  <MOL_WT>  (1468) 
263.2149999999999

>  <LOGP>  (1468) 
1.9297

>  <TPSA>  (1468) 
72.55

>  <POPULARITY>  (1468) 
2.7

>  <PROTECTED>  (1468) 
TRUE

>  <SMILES>  (1468) 
N[C@@H](CCc1(ccccc1OC(F)(F)F))C(=O)O

>  <INCHIKEY>  (1468) 
AKBSJHPDJHJGOW-QMMMGPOBSA-N

$$$$
Phe_3ethynyl
     RDKit          2D

 14 14  0  0  0  0  0  0  0  0999 V2000
   -2.3578    1.5845    0.0000 N   0  0  0  0  0  0  0  0  0  0  0  0
   -2.4110    0.0855    0.0000 C   0  0  0  0  0  0  0  0  0  0  0  0
   -1.1393   -0.7101    0.0000 C   0  0  0  0  0  0  0  0  0  0  0  0
    0.1855   -0.0066    0.0000 C   0  0  0  0  0  0  0  0  0  0  0  0
    0.2386    1.4925    0.0000 C   0  0  0  0  0  0  0  0  0  0  0  0
    1.5634    2.1960    0.0000 C   0  0  0  0  0  0  0  0  0  0  0  0
    2.8351    1.4004    0.0000 C   0  0  0  0  0  0  0  0  0  0  0  0
    2.7819   -0.0986    0.0000 C   0  0  0  0  0  0  0  0  0  0  0  0
    4.0535   -0.8942    0.0000 C   0  0  0  0  0  0  0  0  0  0  0  0
    5.3252   -1.6898    0.0000 C   0  0  0  0  0  0  0  0  0  0  0  0
    1.4571   -0.8021    0.0000 C   0  0  0  0  0  0  0  0  0  0  0  0
   -3.7358   -0.6180    0.0000 C   0  0  0  0  0  0  0  0  0  0  0  0
   -3.7889   -2.1171    0.0000 O   0  0  0  0  0  0  0  0  0  0  0  0
   -5.0074    0.1776    0.0000 O   0  0  0  0  0  0  0  0  0  0  0  0
  2  1  1  1
  2  3  1  0
  3  4  1  0
  4  5  2  0
  5  6  1  0
  6  7  2  0
  7  8  1  0
  8  9  1  0
  9 10  3  0
  8 11  2  0
  2 12  1  0
 12 13  2  0
 12 14  1  0
 11  4  1  0
M  END
>  <rName>  (1469) 
Phe_3ethynyl

>  <PQ_SYMBOL>  (1469) 
Phe_3ethynyl

>  <FULL_NAME>  (1469) 
(S)-2-amino-3-(3-ethynylphenyl)propanoic acid

>  <IUPAC_CONDENSED>  (1469) 
Phe(3-ethynyl)

>  <IUPAC>  (1469) 
(2S)-2-amino-3-(3-(ethynyl)phenyl)propanoic acid

>  <TYPE>  (1469) 
Backbone

>  <CLASS>  (1469) 
alpha

>  <ANALOG>  (1469) 
Phe

>  <MOL_WT>  (1469) 
189.21399999999997

>  <LOGP>  (1469) 
0.6223000000000001

>  <TPSA>  (1469) 
63.32000000000001

>  <POPULARITY>  (1469) 
3.5

>  <PROTECTED>  (1469) 
TRUE

>  <SMILES>  (1469) 
N[C@@H](Cc1(cccc(C#C)c1))C(=O)O

>  <INCHIKEY>  (1469) 
XHBJLKMBAFTWJD-JTQLQIEISA-N

$$$$
D-aMeDip
     RDKit          2D

 19 20  0  0  0  0  0  0  0  0999 V2000
    1.3285   -2.1709    0.0000 N   0  0  0  0  0  0  0  0  0  0  0  0
   -0.1416   -1.8728    0.0000 C   0  0  0  0  0  0  0  0  0  0  0  0
   -0.4396   -3.3429    0.0000 C   0  0  0  0  0  0  0  0  0  0  0  0
    0.1565   -0.4027    0.0000 C   0  0  0  0  0  0  0  0  0  0  0  0
    1.5786    0.0742    0.0000 C   0  0  0  0  0  0  0  0  0  0  0  0
    2.7027   -0.9189    0.0000 C   0  0  0  0  0  0  0  0  0  0  0  0
    4.1249   -0.4420    0.0000 C   0  0  0  0  0  0  0  0  0  0  0  0
    4.4229    1.0281    0.0000 C   0  0  0  0  0  0  0  0  0  0  0  0
    3.2988    2.0213    0.0000 C   0  0  0  0  0  0  0  0  0  0  0  0
    1.8766    1.5443    0.0000 C   0  0  0  0  0  0  0  0  0  0  0  0
   -0.9677    0.5904    0.0000 C   0  0  0  0  0  0  0  0  0  0  0  0
   -2.3898    0.1135    0.0000 C   0  0  0  0  0  0  0  0  0  0  0  0
   -3.5140    1.1066    0.0000 C   0  0  0  0  0  0  0  0  0  0  0  0
   -3.2159    2.5767    0.0000 C   0  0  0  0  0  0  0  0  0  0  0  0
   -1.7938    3.0536    0.0000 C   0  0  0  0  0  0  0  0  0  0  0  0
   -0.6696    2.0605    0.0000 C   0  0  0  0  0  0  0  0  0  0  0  0
   -1.6117   -1.5748    0.0000 C   0  0  0  0  0  0  0  0  0  0  0  0
   -2.1411   -0.7452    0.0000 O   0  0  0  0  0  0  0  0  0  0  0  0
   -2.6048   -2.6989    0.0000 O   0  0  0  0  0  0  0  0  0  0  0  0
  1  2  1  0
  2  3  1  6
  2  4  1  0
  4  5  1  0
  5  6  2  0
  6  7  1  0
  7  8  2  0
  8  9  1  0
  9 10  2  0
  4 11  1  0
 11 12  2  0
 12 13  1  0
 13 14  2  0
 14 15  1  0
 15 16  2  0
  2 17  1  0
 17 18  2  0
 17 19  1  0
 10  5  1  0
 16 11  1  0
M  END
>  <rName>  (1470) 
D-aMeDip

>  <PQ_SYMBOL>  (1470) 
D-aMeDip

>  <FULL_NAME>  (1470) 
(R)-2-amino-2-methyl-3,3-diphenylpropanoic acid

>  <IUPAC_CONDENSED>  (1470) 
D-aMeDip

>  <IUPAC>  (1470) 
(2R)-2-amino-2-(diphenylmethyl)propanoic acid

>  <TYPE>  (1470) 
Backbone

>  <CLASS>  (1470) 
alpha

>  <ANALOG>  (1470) 
Phe

>  <MOL_WT>  (1470) 
255.317

>  <LOGP>  (1470) 
2.6205000000000007

>  <TPSA>  (1470) 
63.32000000000001

>  <POPULARITY>  (1470) 
3.3

>  <PROTECTED>  (1470) 
TRUE

>  <SMILES>  (1470) 
N[C@](C)(C(c1(ccccc1))c2(ccccc2))C(=O)O

>  <INCHIKEY>  (1470) 
ASPQQADBNNQZME-MRXNPFEDSA-N

$$$$
homoPip
     RDKit          2D

 10 10  0  0  0  0  0  0  0  0999 V2000
   -0.0408   -1.3515    0.0000 N   0  0  0  0  0  0  0  0  0  0  0  0
    0.6100   -0.0000    0.0000 C   0  0  0  0  0  0  0  0  0  0  0  0
   -0.0408    1.3515    0.0000 C   0  0  0  0  0  0  0  0  0  0  0  0
   -1.5032    1.6852    0.0000 C   0  0  0  0  0  0  0  0  0  0  0  0
   -2.6760    0.7500    0.0000 C   0  0  0  0  0  0  0  0  0  0  0  0
   -2.6760   -0.7500    0.0000 C   0  0  0  0  0  0  0  0  0  0  0  0
   -1.5032   -1.6852    0.0000 C   0  0  0  0  0  0  0  0  0  0  0  0
    2.1100    0.0000    0.0000 C   0  0  0  0  0  0  0  0  0  0  0  0
    2.8600    1.2990    0.0000 O   0  0  0  0  0  0  0  0  0  0  0  0
    2.8600   -1.2990    0.0000 O   0  0  0  0  0  0  0  0  0  0  0  0
  1  2  1  0
  2  3  1  0
  3  4  1  0
  4  5  1  0
  5  6  1  0
  6  7  1  0
  2  8  1  1
  8  9  2  0
  8 10  1  0
  7  1  1  0
M  END
>  <rName>  (1471) 
homoPip

>  <PQ_SYMBOL>  (1471) 
homoPip

>  <FULL_NAME>  (1471) 
(S)-azepane-2-carboxylic acid

>  <IUPAC_CONDENSED>  (1471) 
homoPip

>  <IUPAC>  (1471) 
(2S)-1-azacycloheptane-2-carboxylic acid

>  <TYPE>  (1471) 
Backbone

>  <CLASS>  (1471) 
alpha

>  <ANALOG>  (1471) 
Pro

>  <MOL_WT>  (1471) 
143.186

>  <LOGP>  (1471) 
0.6032

>  <TPSA>  (1471) 
49.33

>  <POPULARITY>  (1471) 
7

>  <PROTECTED>  (1471) 
TRUE

>  <SMILES>  (1471) 
N1[C@@H](CCCCC1)C(=O)O

>  <INCHIKEY>  (1471) 
OPFURXRZISKMJV-LURJTMIESA-N

$$$$
Aad_CO2H
     RDKit          2D

 14 13  0  0  0  0  0  0  0  0999 V2000
    2.3797   -2.0877    0.0000 N   0  0  0  0  0  0  0  0  0  0  0  0
    2.2742   -0.5914    0.0000 C   0  0  0  0  0  0  0  0  0  0  0  0
    0.9256    0.0653    0.0000 C   0  0  0  0  0  0  0  0  0  0  0  0
   -0.3175   -0.7743    0.0000 C   0  0  0  0  0  0  0  0  0  0  0  0
   -1.6661   -0.1175    0.0000 C   0  0  0  0  0  0  0  0  0  0  0  0
   -2.9091   -0.9571    0.0000 C   0  0  0  0  0  0  0  0  0  0  0  0
   -2.8035   -2.4534    0.0000 O   0  0  0  0  0  0  0  0  0  0  0  0
   -4.2577   -0.3004    0.0000 O   0  0  0  0  0  0  0  0  0  0  0  0
   -1.7716    1.3787    0.0000 C   0  0  0  0  0  0  0  0  0  0  0  0
   -0.5286    2.2183    0.0000 O   0  0  0  0  0  0  0  0  0  0  0  0
   -3.1202    2.0355    0.0000 O   0  0  0  0  0  0  0  0  0  0  0  0
    3.5172    0.2481    0.0000 C   0  0  0  0  0  0  0  0  0  0  0  0
    3.4117    1.7444    0.0000 O   0  0  0  0  0  0  0  0  0  0  0  0
    4.8658   -0.4086    0.0000 O   0  0  0  0  0  0  0  0  0  0  0  0
  2  1  1  1
  2  3  1  0
  3  4  1  0
  4  5  1  0
  5  6  1  0
  6  7  2  0
  6  8  1  0
  5  9  1  0
  9 10  2  0
  9 11  1  0
  2 12  1  0
 12 13  2  0
 12 14  1  0
M  END
>  <rName>  (1472) 
Aad_CO2H

>  <PQ_SYMBOL>  (1472) 
Aad_CO2H

>  <FULL_NAME>  (1472) 
(S)-4-aminobutane-1,1,4-tricarboxylic acid

>  <IUPAC_CONDENSED>  (1472) 
Aad(CO2H)

>  <IUPAC>  (1472) 
(2S)-2-amino-5-carboxyhexanedioic acid

>  <TYPE>  (1472) 
Backbone

>  <CLASS>  (1472) 
alpha

>  <ANALOG>  (1472) 
X

>  <MOL_WT>  (1472) 
205.16599999999997

>  <LOGP>  (1472) 
-1.0360999999999987

>  <TPSA>  (1472) 
137.92000000000002

>  <POPULARITY>  (1472) 
4.3

>  <PROTECTED>  (1472) 
TRUE

>  <SMILES>  (1472) 
N[C@@H](CCC(C(=O)O)C(=O)O)C(=O)O

>  <INCHIKEY>  (1472) 
BSEWAJVZTJXACR-BYPYZUCNSA-N

$$$$
Phe_4Ph_2CO2H
     RDKit          2D

 21 22  0  0  0  0  0  0  0  0999 V2000
   -3.4991    1.5768    0.0000 N   0  0  0  0  0  0  0  0  0  0  0  0
   -4.1658    0.2331    0.0000 C   0  0  0  0  0  0  0  0  0  0  0  0
   -3.3355   -1.0162    0.0000 C   0  0  0  0  0  0  0  0  0  0  0  0
   -1.8385   -0.9217    0.0000 C   0  0  0  0  0  0  0  0  0  0  0  0
   -1.1717    0.4219    0.0000 C   0  0  0  0  0  0  0  0  0  0  0  0
    0.3253    0.5164    0.0000 C   0  0  0  0  0  0  0  0  0  0  0  0
    1.1556   -0.7329    0.0000 C   0  0  0  0  0  0  0  0  0  0  0  0
    0.4888   -2.0765    0.0000 C   0  0  0  0  0  0  0  0  0  0  0  0
   -1.0082   -2.1710    0.0000 C   0  0  0  0  0  0  0  0  0  0  0  0
    2.6526   -0.6384    0.0000 C   0  0  0  0  0  0  0  0  0  0  0  0
    3.4829   -1.8877    0.0000 C   0  0  0  0  0  0  0  0  0  0  0  0
    4.9799   -1.7933    0.0000 C   0  0  0  0  0  0  0  0  0  0  0  0
    5.6466   -0.4496    0.0000 C   0  0  0  0  0  0  0  0  0  0  0  0
    4.8164    0.7997    0.0000 C   0  0  0  0  0  0  0  0  0  0  0  0
    3.3193    0.7052    0.0000 C   0  0  0  0  0  0  0  0  0  0  0  0
    2.4890    1.9545    0.0000 C   0  0  0  0  0  0  0  0  0  0  0  0
    0.9920    1.8600    0.0000 O   0  0  0  0  0  0  0  0  0  0  0  0
    3.1558    3.2982    0.0000 O   0  0  0  0  0  0  0  0  0  0  0  0
   -5.6628    0.1387    0.0000 C   0  0  0  0  0  0  0  0  0  0  0  0
   -6.3296   -1.2050    0.0000 O   0  0  0  0  0  0  0  0  0  0  0  0
   -6.4931    1.3879    0.0000 O   0  0  0  0  0  0  0  0  0  0  0  0
  2  1  1  1
  2  3  1  0
  3  4  1  0
  4  5  1  0
  5  6  2  0
  6  7  1  0
  7  8  2  0
  8  9  1  0
  7 10  1  0
 10 11  2  0
 11 12  1  0
 12 13  2  0
 13 14  1  0
 14 15  2  0
 15 16  1  0
 16 17  2  0
 16 18  1  0
  2 19  1  0
 19 20  2  0
 19 21  1  0
  9  4  2  0
 15 10  1  0
M  END
>  <rName>  (1473) 
Phe_4Ph_2CO2H

>  <PQ_SYMBOL>  (1473) 
Phe_4Ph_2CO2H

>  <FULL_NAME>  (1473) 
(S)-4'-(2-amino-2-carboxyethyl)-[1,1'-biphenyl]-2-carboxylic acid

>  <IUPAC_CONDENSED>  (1473) 
Phe(4-Ph(2-CO2H))

>  <IUPAC>  (1473) 
2-(4-((2S)-2-amino-3-hydroxy-3-oxopropyl)phenyl)benzoic acid

>  <TYPE>  (1473) 
Backbone

>  <CLASS>  (1473) 
alpha

>  <ANALOG>  (1473) 
Phe

>  <MOL_WT>  (1473) 
285.299

>  <LOGP>  (1473) 
2.0062

>  <TPSA>  (1473) 
100.62000000000002

>  <POPULARITY>  (1473) 
3.4

>  <PROTECTED>  (1473) 
TRUE

>  <SMILES>  (1473) 
N[C@@H](Cc1(ccc(cc1)c2(ccccc2C(=O)O)))C(=O)O

>  <INCHIKEY>  (1473) 
PBGUUDQWSBFDJM-AWEZNQCLSA-N

$$$$
Phe_4Ph_3CO2H
     RDKit          2D

 21 22  0  0  0  0  0  0  0  0999 V2000
    3.8626   -1.8583    0.0000 N   0  0  0  0  0  0  0  0  0  0  0  0
    4.6340   -0.5718    0.0000 C   0  0  0  0  0  0  0  0  0  0  0  0
    3.9057    0.7395    0.0000 C   0  0  0  0  0  0  0  0  0  0  0  0
    2.4059    0.7644    0.0000 C   0  0  0  0  0  0  0  0  0  0  0  0
    1.6344   -0.5221    0.0000 C   0  0  0  0  0  0  0  0  0  0  0  0
    0.1346   -0.4972    0.0000 C   0  0  0  0  0  0  0  0  0  0  0  0
   -0.5937    0.8141    0.0000 C   0  0  0  0  0  0  0  0  0  0  0  0
    0.1777    2.1005    0.0000 C   0  0  0  0  0  0  0  0  0  0  0  0
    1.6775    2.0757    0.0000 C   0  0  0  0  0  0  0  0  0  0  0  0
   -2.0935    0.8390    0.0000 C   0  0  0  0  0  0  0  0  0  0  0  0
   -2.8219    2.1503    0.0000 C   0  0  0  0  0  0  0  0  0  0  0  0
   -4.3216    2.1752    0.0000 C   0  0  0  0  0  0  0  0  0  0  0  0
   -5.0931    0.8888    0.0000 C   0  0  0  0  0  0  0  0  0  0  0  0
   -4.3648   -0.4225    0.0000 C   0  0  0  0  0  0  0  0  0  0  0  0
   -2.8650   -0.4474    0.0000 C   0  0  0  0  0  0  0  0  0  0  0  0
   -5.1362   -1.7089    0.0000 C   0  0  0  0  0  0  0  0  0  0  0  0
   -4.4079   -3.0202    0.0000 O   0  0  0  0  0  0  0  0  0  0  0  0
   -6.6360   -1.6840    0.0000 O   0  0  0  0  0  0  0  0  0  0  0  0
    6.1338   -0.5967    0.0000 C   0  0  0  0  0  0  0  0  0  0  0  0
    6.9053    0.6897    0.0000 O   0  0  0  0  0  0  0  0  0  0  0  0
    6.8621   -1.9080    0.0000 O   0  0  0  0  0  0  0  0  0  0  0  0
  2  1  1  1
  2  3  1  0
  3  4  1  0
  4  5  1  0
  5  6  2  0
  6  7  1  0
  7  8  2  0
  8  9  1  0
  7 10  1  0
 10 11  2  0
 11 12  1  0
 12 13  2  0
 13 14  1  0
 14 15  2  0
 14 16  1  0
 16 17  2  0
 16 18  1  0
  2 19  1  0
 19 20  2  0
 19 21  1  0
  9  4  2  0
 15 10  1  0
M  END
>  <rName>  (1474) 
Phe_4Ph_3CO2H

>  <PQ_SYMBOL>  (1474) 
Phe_4Ph_3CO2H

>  <FULL_NAME>  (1474) 
(S)-4'-(2-amino-2-carboxyethyl)-[1,1'-biphenyl]-3-carboxylic acid

>  <IUPAC_CONDENSED>  (1474) 
Phe(4-Ph(3-CO2H))

>  <IUPAC>  (1474) 
3-(4-((2S)-2-amino-3-hydroxy-3-oxopropyl)phenyl)benzoic acid

>  <TYPE>  (1474) 
Backbone

>  <CLASS>  (1474) 
alpha

>  <ANALOG>  (1474) 
Phe

>  <MOL_WT>  (1474) 
285.299

>  <LOGP>  (1474) 
2.0062

>  <TPSA>  (1474) 
100.62000000000002

>  <POPULARITY>  (1474) 
4.1

>  <PROTECTED>  (1474) 
TRUE

>  <SMILES>  (1474) 
N[C@@H](Cc1(ccc(cc1)c2(cccc(c2)C(=O)O)))C(=O)O

>  <INCHIKEY>  (1474) 
JQKOMNVRHCDMFH-AWEZNQCLSA-N

$$$$
Ala_7OMe2oxochromenyl
     RDKit          2D

 19 20  0  0  0  0  0  0  0  0999 V2000
   -3.6022   -1.1766    0.0000 N   0  0  0  0  0  0  0  0  0  0  0  0
   -3.2926    0.2911    0.0000 C   0  0  0  0  0  0  0  0  0  0  0  0
   -1.8667    0.7568    0.0000 C   0  0  0  0  0  0  0  0  0  0  0  0
   -0.7505   -0.2451    0.0000 C   0  0  0  0  0  0  0  0  0  0  0  0
   -1.0600   -1.7128    0.0000 C   0  0  0  0  0  0  0  0  0  0  0  0
    0.0562   -2.7148    0.0000 C   0  0  0  0  0  0  0  0  0  0  0  0
   -0.2533   -4.1825    0.0000 O   0  0  0  0  0  0  0  0  0  0  0  0
    1.4821   -2.2490    0.0000 O   0  0  0  0  0  0  0  0  0  0  0  0
    1.7917   -0.7813    0.0000 C   0  0  0  0  0  0  0  0  0  0  0  0
    3.2175   -0.3156    0.0000 C   0  0  0  0  0  0  0  0  0  0  0  0
    3.5271    1.1521    0.0000 C   0  0  0  0  0  0  0  0  0  0  0  0
    4.9530    1.6179    0.0000 O   0  0  0  0  0  0  0  0  0  0  0  0
    6.0693    0.6159    0.0000 C   0  0  0  0  0  0  0  0  0  0  0  0
    2.4109    2.1541    0.0000 C   0  0  0  0  0  0  0  0  0  0  0  0
    0.9850    1.6883    0.0000 C   0  0  0  0  0  0  0  0  0  0  0  0
    0.6754    0.2206    0.0000 C   0  0  0  0  0  0  0  0  0  0  0  0
   -4.4089    1.2930    0.0000 C   0  0  0  0  0  0  0  0  0  0  0  0
   -4.0993    2.7607    0.0000 O   0  0  0  0  0  0  0  0  0  0  0  0
   -5.8347    0.8273    0.0000 O   0  0  0  0  0  0  0  0  0  0  0  0
  2  1  1  6
  2  3  1  0
  3  4  1  0
  4  5  2  0
  5  6  1  0
  6  7  2  0
  6  8  1  0
  8  9  1  0
  9 10  1  0
 10 11  2  0
 11 12  1  0
 12 13  1  0
 11 14  1  0
 14 15  2  0
 15 16  1  0
  2 17  1  0
 17 18  2  0
 17 19  1  0
 16  9  2  0
 16  4  1  0
M  END
>  <rName>  (1475) 
Ala_7OMe2oxochromenyl

>  <PQ_SYMBOL>  (1475) 
Ala_7OMe2oxochromenyl

>  <FULL_NAME>  (1475) 
(S)-2-amino-3-(7-methoxy-2-oxo-2H-chromen-4-yl)propanoic acid

>  <IUPAC_CONDENSED>  (1475) 
Ala(7-OMe-2-oxochromenyl)

>  <IUPAC>  (1475) 
(2S)-2-amino-3-(9-methoxy-3-oxo-2-oxabicyclo[4.4.0]deca-1(10),4,6,8-tetraen-5-yl)propanoic acid

>  <TYPE>  (1475) 
Backbone

>  <CLASS>  (1475) 
alpha

>  <ANALOG>  (1475) 
Tyr

>  <MOL_WT>  (1475) 
263.24899999999997

>  <LOGP>  (1475) 
0.7560000000000002

>  <TPSA>  (1475) 
102.76

>  <POPULARITY>  (1475) 
4.5

>  <PROTECTED>  (1475) 
TRUE

>  <SMILES>  (1475) 
N[C@@H](Cc2(cc(=O)oc1(cc(OC)ccc12)))C(=O)O

>  <INCHIKEY>  (1475) 
IOHUIWNMQPWOAX-JTQLQIEISA-N

$$$$
Tyr_26diF
     RDKit          2D

 15 15  0  0  0  0  0  0  0  0999 V2000
   -1.7110    1.6830    0.0000 N   0  0  0  0  0  0  0  0  0  0  0  0
   -2.0873    0.2310    0.0000 C   0  0  0  0  0  0  0  0  0  0  0  0
   -1.0179   -0.8209    0.0000 C   0  0  0  0  0  0  0  0  0  0  0  0
    0.4277   -0.4208    0.0000 C   0  0  0  0  0  0  0  0  0  0  0  0
    0.8040    1.0313    0.0000 C   0  0  0  0  0  0  0  0  0  0  0  0
   -0.2654    2.0832    0.0000 F   0  0  0  0  0  0  0  0  0  0  0  0
    2.2497    1.4315    0.0000 C   0  0  0  0  0  0  0  0  0  0  0  0
    3.3190    0.3796    0.0000 C   0  0  0  0  0  0  0  0  0  0  0  0
    4.7647    0.7797    0.0000 O   0  0  0  0  0  0  0  0  0  0  0  0
    2.9428   -1.0725    0.0000 C   0  0  0  0  0  0  0  0  0  0  0  0
    1.4971   -1.4726    0.0000 C   0  0  0  0  0  0  0  0  0  0  0  0
    1.1209   -2.9247    0.0000 F   0  0  0  0  0  0  0  0  0  0  0  0
   -3.5329   -0.1692    0.0000 C   0  0  0  0  0  0  0  0  0  0  0  0
   -3.9092   -1.6212    0.0000 O   0  0  0  0  0  0  0  0  0  0  0  0
   -4.6023    0.8827    0.0000 O   0  0  0  0  0  0  0  0  0  0  0  0
  2  1  1  1
  2  3  1  0
  3  4  1  0
  4  5  2  0
  5  6  1  0
  5  7  1  0
  7  8  2  0
  8  9  1  0
  8 10  1  0
 10 11  2  0
 11 12  1  0
  2 13  1  0
 13 14  2  0
 13 15  1  0
 11  4  1  0
M  END
>  <rName>  (1476) 
Tyr_26diF

>  <PQ_SYMBOL>  (1476) 
Tyr_26diF

>  <FULL_NAME>  (1476) 
(S)-2-amino-3-(2,6-difluoro-4-hydroxyphenyl)propanoic acid

>  <IUPAC_CONDENSED>  (1476) 
Tyr(2,6-diF)

>  <IUPAC>  (1476) 
(2S)-2-amino-3-(2,6-difluoro-4-hydroxyphenyl)propanoic acid

>  <TYPE>  (1476) 
Backbone

>  <CLASS>  (1476) 
alpha

>  <ANALOG>  (1476) 
Tyr

>  <MOL_WT>  (1476) 
217.17099999999996

>  <LOGP>  (1476) 
0.6248

>  <TPSA>  (1476) 
83.55

>  <POPULARITY>  (1476) 
5.6

>  <PROTECTED>  (1476) 
TRUE

>  <SMILES>  (1476) 
N[C@@H](Cc1(c(F)cc(O)cc1F))C(=O)O

>  <INCHIKEY>  (1476) 
GXXSRPQBOBZVBN-QMMMGPOBSA-N

$$$$
bAla_3RCHF2
     RDKit          2D

  9  8  0  0  0  0  0  0  0  0999 V2000
   -0.2826   -1.7410    0.0000 N   0  0  0  0  0  0  0  0  0  0  0  0
   -0.5402   -0.2633    0.0000 C   0  0  0  0  0  0  0  0  0  0  0  0
   -1.9487    0.2525    0.0000 C   0  0  0  0  0  0  0  0  0  0  0  0
   -3.0997   -0.7094    0.0000 F   0  0  0  0  0  0  0  0  0  0  0  0
   -2.2062    1.7302    0.0000 F   0  0  0  0  0  0  0  0  0  0  0  0
    0.6108    0.6986    0.0000 C   0  0  0  0  0  0  0  0  0  0  0  0
    2.0193    0.1828    0.0000 C   0  0  0  0  0  0  0  0  0  0  0  0
    2.2769   -1.2950    0.0000 O   0  0  0  0  0  0  0  0  0  0  0  0
    3.1703    1.1447    0.0000 O   0  0  0  0  0  0  0  0  0  0  0  0
  2  1  1  6
  2  3  1  0
  3  4  1  0
  3  5  1  0
  2  6  1  0
  6  7  1  0
  7  8  2  0
  7  9  1  0
M  END
>  <rName>  (1477) 
bAla_3RCHF2

>  <PQ_SYMBOL>  (1477) 
bAla_3RCHF2

>  <FULL_NAME>  (1477) 
(S)-3-amino-4,4-difluorobutanoic acid

>  <IUPAC_CONDENSED>  (1477) 
bAla(3R-CHF2)

>  <IUPAC>  (1477) 
(3S)-3-amino-4,4-difluorobutanoic acid

>  <TYPE>  (1477) 
Backbone

>  <CLASS>  (1477) 
beta

>  <ANALOG>  (1477) 
X

>  <MOL_WT>  (1477) 
139.101

>  <LOGP>  (1477) 
0.05350000000000005

>  <TPSA>  (1477) 
63.32000000000001

>  <POPULARITY>  (1477) 
5.3

>  <PROTECTED>  (1477) 
TRUE

>  <SMILES>  (1477) 
N[C@H](C(F)F)CC(=O)O

>  <INCHIKEY>  (1477) 
OLFYIMZVBDNOOK-REOHCLBHSA-N

$$$$
Nva_Ph_35diF
     RDKit          2D

 16 16  0  0  0  0  0  0  0  0999 V2000
   -3.3276    1.7816    0.0000 N   0  0  0  0  0  0  0  0  0  0  0  0
   -3.5707    0.3014    0.0000 C   0  0  0  0  0  0  0  0  0  0  0  0
   -2.4104   -0.6492    0.0000 C   0  0  0  0  0  0  0  0  0  0  0  0
   -1.0070   -0.1196    0.0000 C   0  0  0  0  0  0  0  0  0  0  0  0
    0.1533   -1.0702    0.0000 C   0  0  0  0  0  0  0  0  0  0  0  0
    1.5568   -0.5407    0.0000 C   0  0  0  0  0  0  0  0  0  0  0  0
    1.7998    0.9395    0.0000 C   0  0  0  0  0  0  0  0  0  0  0  0
    3.2033    1.4690    0.0000 C   0  0  0  0  0  0  0  0  0  0  0  0
    3.4463    2.9492    0.0000 F   0  0  0  0  0  0  0  0  0  0  0  0
    4.3636    0.5184    0.0000 C   0  0  0  0  0  0  0  0  0  0  0  0
    4.1205   -0.9617    0.0000 C   0  0  0  0  0  0  0  0  0  0  0  0
    5.2808   -1.9123    0.0000 F   0  0  0  0  0  0  0  0  0  0  0  0
    2.7171   -1.4913    0.0000 C   0  0  0  0  0  0  0  0  0  0  0  0
   -4.9741   -0.2282    0.0000 C   0  0  0  0  0  0  0  0  0  0  0  0
   -5.2172   -1.7083    0.0000 O   0  0  0  0  0  0  0  0  0  0  0  0
   -6.1344    0.7225    0.0000 O   0  0  0  0  0  0  0  0  0  0  0  0
  2  1  1  1
  2  3  1  0
  3  4  1  0
  4  5  1  0
  5  6  1  0
  6  7  2  0
  7  8  1  0
  8  9  1  0
  8 10  2  0
 10 11  1  0
 11 12  1  0
 11 13  2  0
  2 14  1  0
 14 15  2  0
 14 16  1  0
 13  6  1  0
M  END
>  <rName>  (1478) 
Nva_Ph_35diF

>  <PQ_SYMBOL>  (1478) 
Nva_Ph_35diF

>  <FULL_NAME>  (1478) 
(S)-2-amino-5-(3,5-difluorophenyl)pentanoic acid

>  <IUPAC_CONDENSED>  (1478) 
Nva(Ph(3,5-diF))

>  <IUPAC>  (1478) 
(2S)-2-amino-5-(3,5-difluorophenyl)pentanoic acid

>  <TYPE>  (1478) 
Backbone

>  <CLASS>  (1478) 
alpha

>  <ANALOG>  (1478) 
X

>  <MOL_WT>  (1478) 
229.226

>  <LOGP>  (1478) 
1.6994

>  <TPSA>  (1478) 
63.32000000000001

>  <POPULARITY>  (1478) 
5.2

>  <PROTECTED>  (1478) 
TRUE

>  <SMILES>  (1478) 
N[C@@H](CCCc1(cc(F)cc(F)c1))C(=O)O

>  <INCHIKEY>  (1478) 
LIQASHMIOKGFMY-JTQLQIEISA-N

$$$$
NMe-Nle_but3enyl
     RDKit          2D

 14 13  0  0  0  0  0  0  0  0999 V2000
   -4.2470    1.3459    0.0000 N   0  0  0  0  0  0  0  0  0  0  0  0
   -5.6150    0.7307    0.0000 C   0  0  0  0  0  0  0  0  0  0  0  0
   -3.0302    0.4687    0.0000 C   0  0  0  0  0  0  0  0  0  0  0  0
   -1.6622    1.0839    0.0000 C   0  0  0  0  0  0  0  0  0  0  0  0
   -0.4454    0.2067    0.0000 C   0  0  0  0  0  0  0  0  0  0  0  0
    0.9227    0.8219    0.0000 C   0  0  0  0  0  0  0  0  0  0  0  0
    2.1395   -0.0553    0.0000 C   0  0  0  0  0  0  0  0  0  0  0  0
    3.5075    0.5599    0.0000 C   0  0  0  0  0  0  0  0  0  0  0  0
    4.7243   -0.3173    0.0000 C   0  0  0  0  0  0  0  0  0  0  0  0
    6.0923    0.2979    0.0000 C   0  0  0  0  0  0  0  0  0  0  0  0
    7.3091   -0.5793    0.0000 C   0  0  0  0  0  0  0  0  0  0  0  0
   -3.1815   -1.0237    0.0000 C   0  0  0  0  0  0  0  0  0  0  0  0
   -4.5495   -1.6389    0.0000 O   0  0  0  0  0  0  0  0  0  0  0  0
   -1.9647   -1.9009    0.0000 O   0  0  0  0  0  0  0  0  0  0  0  0
  1  2  1  0
  1  3  1  0
  3  4  1  1
  4  5  1  0
  5  6  1  0
  6  7  1  0
  7  8  1  0
  8  9  1  0
  9 10  1  0
 10 11  2  0
  3 12  1  0
 12 13  2  0
 12 14  1  0
M  END
>  <rName>  (1479) 
NMe-Nle_but3enyl

>  <PQ_SYMBOL>  (1479) 
NMe-Nle_but3enyl

>  <FULL_NAME>  (1479) 
(2S)-2-(methylamino)dec-9-enoic acid

>  <IUPAC_CONDENSED>  (1479) 
Me-Nle(but-3-enyl)

>  <IUPAC>  (1479) 
(2S)-2-(methylamino)dec-9-enoic acid

>  <TYPE>  (1479) 
Backbone

>  <CLASS>  (1479) 
alpha

>  <ANALOG>  (1479) 
X

>  <MOL_WT>  (1479) 
199.294

>  <LOGP>  (1479) 
2.1856

>  <TPSA>  (1479) 
49.33

>  <POPULARITY>  (1479) 
7.1

>  <PROTECTED>  (1479) 
TRUE

>  <SMILES>  (1479) 
N(C)[C@@H](CCCCCCC=C)C(=O)O

>  <INCHIKEY>  (1479) 
FKFFHGSQSDCSLG-JTQLQIEISA-N

$$$$
N_3carboxypropyl-G
     RDKit          2D

 11 10  0  0  0  0  0  0  0  0999 V2000
   -1.2990    0.0682    0.0000 N   0  0  0  0  0  0  0  0  0  0  0  0
   -0.0000   -0.6818    0.0000 C   0  0  0  0  0  0  0  0  0  0  0  0
    1.2990    0.0682    0.0000 C   0  0  0  0  0  0  0  0  0  0  0  0
    2.5981   -0.6818    0.0000 C   0  0  0  0  0  0  0  0  0  0  0  0
    3.8971    0.0682    0.0000 C   0  0  0  0  0  0  0  0  0  0  0  0
    3.8971    1.5682    0.0000 O   0  0  0  0  0  0  0  0  0  0  0  0
    5.1962   -0.6818    0.0000 O   0  0  0  0  0  0  0  0  0  0  0  0
   -2.5981   -0.6818    0.0000 C   0  0  0  0  0  0  0  0  0  0  0  0
   -3.8971    0.0682    0.0000 C   0  0  0  0  0  0  0  0  0  0  0  0
   -3.8971    1.5682    0.0000 O   0  0  0  0  0  0  0  0  0  0  0  0
   -5.1962   -0.6818    0.0000 O   0  0  0  0  0  0  0  0  0  0  0  0
  1  2  1  0
  2  3  1  0
  3  4  1  0
  4  5  1  0
  5  6  2  0
  5  7  1  0
  1  8  1  0
  8  9  1  0
  9 10  2  0
  9 11  1  0
M  END
>  <rName>  (1480) 
N_3carboxypropyl-G

>  <PQ_SYMBOL>  (1480) 
N_3carboxypropyl-G

>  <FULL_NAME>  (1480) 
4-((carboxymethyl)amino)butanoic acid

>  <IUPAC_CONDENSED>  (1480) 
3-carboxypropyl-Gly

>  <IUPAC>  (1480) 
4-((2-hydroxy-2-oxoethyl)amino)butanoic acid

>  <TYPE>  (1480) 
Backbone

>  <CLASS>  (1480) 
alpha

>  <ANALOG>  (1480) 
Gly

>  <MOL_WT>  (1480) 
161.15699999999998

>  <LOGP>  (1480) 
-0.4746000000000002

>  <TPSA>  (1480) 
86.63000000000001

>  <POPULARITY>  (1480) 
13.4

>  <PROTECTED>  (1480) 
TRUE

>  <SMILES>  (1480) 
N(CCCC(=O)O)CC(=O)O

>  <INCHIKEY>  (1480) 
LORSKKAGSYQQSO-UHFFFAOYSA-N

$$$$
NtBuCH2-G
     RDKit          2D

 10  9  0  0  0  0  0  0  0  0999 V2000
    0.2598   -0.0000    0.0000 N   0  0  0  0  0  0  0  0  0  0  0  0
   -1.0392    0.7500    0.0000 C   0  0  0  0  0  0  0  0  0  0  0  0
   -2.3383   -0.0000    0.0000 C   0  0  0  0  0  0  0  0  0  0  0  0
   -3.0883    1.2990    0.0000 C   0  0  0  0  0  0  0  0  0  0  0  0
   -1.5883   -1.2990    0.0000 C   0  0  0  0  0  0  0  0  0  0  0  0
   -3.6373   -0.7500    0.0000 C   0  0  0  0  0  0  0  0  0  0  0  0
    1.5588    0.7500    0.0000 C   0  0  0  0  0  0  0  0  0  0  0  0
    2.8579   -0.0000    0.0000 C   0  0  0  0  0  0  0  0  0  0  0  0
    2.8579   -1.5000    0.0000 O   0  0  0  0  0  0  0  0  0  0  0  0
    4.1569    0.7500    0.0000 O   0  0  0  0  0  0  0  0  0  0  0  0
  1  2  1  0
  2  3  1  0
  3  4  1  0
  3  5  1  0
  3  6  1  0
  1  7  1  0
  7  8  1  0
  8  9  2  0
  8 10  1  0
M  END
>  <rName>  (1481) 
NtBuCH2-G

>  <PQ_SYMBOL>  (1481) 
NtBuCH2-G

>  <FULL_NAME>  (1481) 
neopentylglycine

>  <IUPAC_CONDENSED>  (1481) 
tBuCH2-Gly

>  <IUPAC>  (1481) 
2-((2,2-dimethylpropyl)amino)acetic acid

>  <TYPE>  (1481) 
Backbone

>  <CLASS>  (1481) 
alpha

>  <ANALOG>  (1481) 
Gly

>  <MOL_WT>  (1481) 
145.202

>  <LOGP>  (1481) 
0.7066999999999999

>  <TPSA>  (1481) 
49.33

>  <POPULARITY>  (1481) 
14.2

>  <PROTECTED>  (1481) 
TRUE

>  <SMILES>  (1481) 
N(CC(C)(C)C)CC(=O)O

>  <INCHIKEY>  (1481) 
ITYQPPZZOYSACT-UHFFFAOYSA-N

$$$$
Cha_72F
     RDKit          2D

 14 14  0  0  0  0  0  0  0  0999 V2000
   -1.8606    1.6756    0.0000 N   0  0  0  0  0  0  0  0  0  0  0  0
   -2.3089    0.2441    0.0000 C   0  0  0  0  0  0  0  0  0  0  0  0
   -1.2933   -0.8598    0.0000 C   0  0  0  0  0  0  0  0  0  0  0  0
    0.1705   -0.5324    0.0000 C   0  0  0  0  0  0  0  0  0  0  0  0
    0.6188    0.8991    0.0000 C   0  0  0  0  0  0  0  0  0  0  0  0
    2.0826    1.2266    0.0000 C   0  0  0  0  0  0  0  0  0  0  0  0
    3.0981    0.1226    0.0000 C   0  0  0  0  0  0  0  0  0  0  0  0
    4.0089    1.3144    0.0000 F   0  0  0  0  0  0  0  0  0  0  0  0
    4.4300   -0.5674    0.0000 F   0  0  0  0  0  0  0  0  0  0  0  0
    2.6498   -1.3088    0.0000 C   0  0  0  0  0  0  0  0  0  0  0  0
    1.1860   -1.6363    0.0000 C   0  0  0  0  0  0  0  0  0  0  0  0
   -3.7727   -0.0834    0.0000 C   0  0  0  0  0  0  0  0  0  0  0  0
   -4.2210   -1.5148    0.0000 O   0  0  0  0  0  0  0  0  0  0  0  0
   -4.7882    1.0206    0.0000 O   0  0  0  0  0  0  0  0  0  0  0  0
  2  1  1  1
  2  3  1  0
  3  4  1  0
  4  5  1  0
  5  6  1  0
  6  7  1  0
  7  8  1  0
  7  9  1  0
  7 10  1  0
 10 11  1  0
  2 12  1  0
 12 13  2  0
 12 14  1  0
 11  4  1  0
M  END
>  <rName>  (1482) 
Cha_72F

>  <PQ_SYMBOL>  (1482) 
Cha_72F

>  <FULL_NAME>  (1482) 
(S)-2-amino-3-(4,4-difluorocyclohexyl)propanoic acid

>  <IUPAC_CONDENSED>  (1482) 
Cha(7-2F)

>  <IUPAC>  (1482) 
(2S)-2-amino-3-(4,4-difluorocyclohexyl)propanoic acid

>  <TYPE>  (1482) 
Backbone

>  <CLASS>  (1482) 
alpha

>  <ANALOG>  (1482) 
X

>  <MOL_WT>  (1482) 
207.21999999999997

>  <LOGP>  (1482) 
1.6139000000000001

>  <TPSA>  (1482) 
63.32000000000001

>  <POPULARITY>  (1482) 
6.4

>  <PROTECTED>  (1482) 
TRUE

>  <SMILES>  (1482) 
N[C@@H](CC1(CCC(F)(F)CC1))C(=O)O

>  <INCHIKEY>  (1482) 
LXHJNUVCXGOEQF-ZETCQYMHSA-N

$$$$
D-Ala_benzothiazol2yl
     RDKit          2D

 15 16  0  0  0  0  0  0  0  0999 V2000
   -2.2312    1.6742    0.0000 N   0  0  0  0  0  0  0  0  0  0  0  0
   -2.7125    0.2535    0.0000 C   0  0  0  0  0  0  0  0  0  0  0  0
   -1.7228   -0.8736    0.0000 C   0  0  0  0  0  0  0  0  0  0  0  0
   -0.2518   -0.5801    0.0000 C   0  0  0  0  0  0  0  0  0  0  0  0
    0.8503   -1.5976    0.0000 N   0  0  0  0  0  0  0  0  0  0  0  0
    2.1586   -0.8639    0.0000 C   0  0  0  0  0  0  0  0  0  0  0  0
    3.5793   -1.3452    0.0000 C   0  0  0  0  0  0  0  0  0  0  0  0
    4.7064   -0.3555    0.0000 C   0  0  0  0  0  0  0  0  0  0  0  0
    4.4129    1.1155    0.0000 C   0  0  0  0  0  0  0  0  0  0  0  0
    2.9922    1.5968    0.0000 C   0  0  0  0  0  0  0  0  0  0  0  0
    1.8650    0.6071    0.0000 C   0  0  0  0  0  0  0  0  0  0  0  0
    0.3753    0.7825    0.0000 S   0  0  0  0  0  0  0  0  0  0  0  0
   -4.1835   -0.0400    0.0000 C   0  0  0  0  0  0  0  0  0  0  0  0
   -4.6648   -1.4607    0.0000 O   0  0  0  0  0  0  0  0  0  0  0  0
   -5.1732    1.0872    0.0000 O   0  0  0  0  0  0  0  0  0  0  0  0
  2  1  1  6
  2  3  1  0
  3  4  1  0
  4  5  2  0
  5  6  1  0
  6  7  2  0
  7  8  1  0
  8  9  2  0
  9 10  1  0
 10 11  2  0
 11 12  1  0
  2 13  1  0
 13 14  2  0
 13 15  1  0
 11  6  1  0
 12  4  1  0
M  END
>  <rName>  (1483) 
D-Ala_benzothiazol2yl

>  <PQ_SYMBOL>  (1483) 
D-Ala_benzothiazol2yl

>  <FULL_NAME>  (1483) 
(R)-2-amino-3-(benzo[d]thiazol-2-yl)propanoic acid

>  <IUPAC_CONDENSED>  (1483) 
D-Ala(benzothiazol-2-yl)

>  <IUPAC>  (1483) 
(2R)-2-amino-3-(benzothiazol-2-yl)propanoic acid

>  <TYPE>  (1483) 
Backbone

>  <CLASS>  (1483) 
alpha

>  <ANALOG>  (1483) 
Phe

>  <MOL_WT>  (1483) 
222.26899999999998

>  <LOGP>  (1483) 
1.2507000000000001

>  <TPSA>  (1483) 
76.21

>  <POPULARITY>  (1483) 
3.7

>  <PROTECTED>  (1483) 
TRUE

>  <SMILES>  (1483) 
N[C@H](Cc2(nc1(ccccc1s2)))C(=O)O

>  <INCHIKEY>  (1483) 
DNDVHMGBCGSRIY-ZCFIWIBFSA-N

$$$$
NMe-Cys_MeNH2
     RDKit          2D

 10  9  0  0  0  0  0  0  0  0999 V2000
    2.2841    1.0297    0.0000 N   0  0  0  0  0  0  0  0  0  0  0  0
    2.2000    2.5273    0.0000 C   0  0  0  0  0  0  0  0  0  0  0  0
    1.0292    0.2080    0.0000 C   0  0  0  0  0  0  0  0  0  0  0  0
   -0.3099    0.8840    0.0000 C   0  0  0  0  0  0  0  0  0  0  0  0
   -1.5648    0.0624    0.0000 S   0  0  0  0  0  0  0  0  0  0  0  0
   -2.9038    0.7384    0.0000 C   0  0  0  0  0  0  0  0  0  0  0  0
   -4.1588   -0.0833    0.0000 N   0  0  0  0  0  0  0  0  0  0  0  0
    1.1133   -1.2896    0.0000 C   0  0  0  0  0  0  0  0  0  0  0  0
    2.4523   -1.9656    0.0000 O   0  0  0  0  0  0  0  0  0  0  0  0
   -0.1417   -2.1113    0.0000 O   0  0  0  0  0  0  0  0  0  0  0  0
  1  2  1  0
  1  3  1  0
  3  4  1  6
  4  5  1  0
  5  6  1  0
  6  7  1  0
  3  8  1  0
  8  9  2  0
  8 10  1  0
M  END
>  <rName>  (1484) 
NMe-Cys_MeNH2

>  <PQ_SYMBOL>  (1484) 
NMe-Cys_MeNH2

>  <FULL_NAME>  (1484) 
S-(aminomethyl)-N-methyl-L-cysteine

>  <IUPAC_CONDENSED>  (1484) 
Me-Cys(MeNH2)

>  <IUPAC>  (1484) 
(2R)-3-(aminomethylsulfanyl)-2-(methylamino)propanoic acid

>  <TYPE>  (1484) 
Backbone

>  <CLASS>  (1484) 
alpha

>  <ANALOG>  (1484) 
Cys

>  <MOL_WT>  (1484) 
164.23000000000002

>  <LOGP>  (1484) 
-0.6915999999999995

>  <TPSA>  (1484) 
75.35

>  <POPULARITY>  (1484) 
6.4

>  <PROTECTED>  (1484) 
TRUE

>  <SMILES>  (1484) 
N(C)[C@@H](CSCN)C(=O)O

>  <INCHIKEY>  (1484) 
DQVDELJPSHVLHM-BYPYZUCNSA-N

$$$$
Ser_cBu
     RDKit          2D

 11 11  0  0  0  0  0  0  0  0999 V2000
   -1.9040   -1.9368    0.0000 N   0  0  0  0  0  0  0  0  0  0  0  0
   -1.7069   -0.4498    0.0000 C   0  0  0  0  0  0  0  0  0  0  0  0
   -0.3206    0.1231    0.0000 C   0  0  0  0  0  0  0  0  0  0  0  0
    0.8686   -0.7911    0.0000 O   0  0  0  0  0  0  0  0  0  0  0  0
    2.2549   -0.2182    0.0000 C   0  0  0  0  0  0  0  0  0  0  0  0
    2.8301    1.1671    0.0000 C   0  0  0  0  0  0  0  0  0  0  0  0
    4.2155    0.5919    0.0000 C   0  0  0  0  0  0  0  0  0  0  0  0
    3.6403   -0.7934    0.0000 C   0  0  0  0  0  0  0  0  0  0  0  0
   -2.8962    0.4643    0.0000 C   0  0  0  0  0  0  0  0  0  0  0  0
   -2.6992    1.9513    0.0000 O   0  0  0  0  0  0  0  0  0  0  0  0
   -4.2825   -0.1085    0.0000 O   0  0  0  0  0  0  0  0  0  0  0  0
  2  1  1  6
  2  3  1  0
  3  4  1  0
  4  5  1  0
  5  6  1  0
  6  7  1  0
  7  8  1  0
  2  9  1  0
  9 10  2  0
  9 11  1  0
  8  5  1  0
M  END
>  <rName>  (1485) 
Ser_cBu

>  <PQ_SYMBOL>  (1485) 
Ser_cBu

>  <FULL_NAME>  (1485) 
O-cyclobutyl-L-serine

>  <IUPAC_CONDENSED>  (1485) 
Ser(cBu)

>  <IUPAC>  (1485) 
(2S)-2-amino-3-(cyclobutoxy)propanoic acid

>  <TYPE>  (1485) 
Backbone

>  <CLASS>  (1485) 
alpha

>  <ANALOG>  (1485) 
Ser

>  <MOL_WT>  (1485) 
159.185

>  <LOGP>  (1485) 
-0.03260000000000046

>  <TPSA>  (1485) 
72.55

>  <POPULARITY>  (1485) 
4.2

>  <PROTECTED>  (1485) 
TRUE

>  <SMILES>  (1485) 
N[C@@H](COC1(CCC1))C(=O)O

>  <INCHIKEY>  (1485) 
IYHHNZMURDQCNV-LURJTMIESA-N

$$$$
Ser_CH2cHex
     RDKit          2D

 14 14  0  0  0  0  0  0  0  0999 V2000
   -2.7125    1.8435    0.0000 N   0  0  0  0  0  0  0  0  0  0  0  0
   -2.9490    0.3623    0.0000 C   0  0  0  0  0  0  0  0  0  0  0  0
   -1.7844   -0.5831    0.0000 C   0  0  0  0  0  0  0  0  0  0  0  0
   -0.3834   -0.0473    0.0000 O   0  0  0  0  0  0  0  0  0  0  0  0
    0.7812   -0.9927    0.0000 C   0  0  0  0  0  0  0  0  0  0  0  0
    2.1822   -0.4569    0.0000 C   0  0  0  0  0  0  0  0  0  0  0  0
    2.4187    1.0244    0.0000 C   0  0  0  0  0  0  0  0  0  0  0  0
    3.8197    1.5602    0.0000 C   0  0  0  0  0  0  0  0  0  0  0  0
    4.9842    0.6148    0.0000 C   0  0  0  0  0  0  0  0  0  0  0  0
    4.7478   -0.8664    0.0000 C   0  0  0  0  0  0  0  0  0  0  0  0
    3.3467   -1.4023    0.0000 C   0  0  0  0  0  0  0  0  0  0  0  0
   -4.3500   -0.1735    0.0000 C   0  0  0  0  0  0  0  0  0  0  0  0
   -4.5865   -1.6548    0.0000 O   0  0  0  0  0  0  0  0  0  0  0  0
   -5.5146    0.7719    0.0000 O   0  0  0  0  0  0  0  0  0  0  0  0
  2  1  1  1
  2  3  1  0
  3  4  1  0
  4  5  1  0
  5  6  1  0
  6  7  1  0
  7  8  1  0
  8  9  1  0
  9 10  1  0
 10 11  1  0
  2 12  1  0
 12 13  2  0
 12 14  1  0
 11  6  1  0
M  END
>  <rName>  (1486) 
Ser_CH2cHex

>  <PQ_SYMBOL>  (1486) 
Ser_CH2cHex

>  <FULL_NAME>  (1486) 
O-(cyclohexylmethyl)-L-serine

>  <IUPAC_CONDENSED>  (1486) 
Ser(CH2cHex)

>  <IUPAC>  (1486) 
(2S)-2-amino-3-(cyclohexylmethoxy)propanoic acid

>  <TYPE>  (1486) 
Backbone

>  <CLASS>  (1486) 
alpha

>  <ANALOG>  (1486) 
Ser

>  <MOL_WT>  (1486) 
201.26599999999996

>  <LOGP>  (1486) 
0.9951999999999996

>  <TPSA>  (1486) 
72.55

>  <POPULARITY>  (1486) 
4.8

>  <PROTECTED>  (1486) 
TRUE

>  <SMILES>  (1486) 
N[C@@H](COCC1(CCCCC1))C(=O)O

>  <INCHIKEY>  (1486) 
GPAONAQVNZKTIE-VIFPVBQESA-N

$$$$
Lys_N62Abz
     RDKit          2D

 19 19  0  0  0  0  0  0  0  0999 V2000
    1.1036    0.1867    0.0000 N   0  0  0  0  0  0  0  0  0  0  0  0
    2.3671   -0.6217    0.0000 C   0  0  0  0  0  0  0  0  0  0  0  0
    2.2987   -2.1202    0.0000 O   0  0  0  0  0  0  0  0  0  0  0  0
    3.6990    0.0682    0.0000 C   0  0  0  0  0  0  0  0  0  0  0  0
    3.7674    1.5667    0.0000 C   0  0  0  0  0  0  0  0  0  0  0  0
    5.0992    2.2567    0.0000 C   0  0  0  0  0  0  0  0  0  0  0  0
    6.3627    1.4482    0.0000 C   0  0  0  0  0  0  0  0  0  0  0  0
    6.2943   -0.0502    0.0000 C   0  0  0  0  0  0  0  0  0  0  0  0
    4.9625   -0.7402    0.0000 C   0  0  0  0  0  0  0  0  0  0  0  0
    4.8941   -2.2386    0.0000 N   0  0  0  0  0  0  0  0  0  0  0  0
   -0.2283   -0.5033    0.0000 C   0  0  0  0  0  0  0  0  0  0  0  0
   -1.4918    0.3052    0.0000 C   0  0  0  0  0  0  0  0  0  0  0  0
   -2.8237   -0.3848    0.0000 C   0  0  0  0  0  0  0  0  0  0  0  0
   -4.0872    0.4236    0.0000 C   0  0  0  0  0  0  0  0  0  0  0  0
   -5.4190   -0.2663    0.0000 C   0  0  0  0  0  0  0  0  0  0  0  0
   -5.4874   -1.7648    0.0000 N   0  0  0  0  0  0  0  0  0  0  0  0
   -6.6825    0.5421    0.0000 C   0  0  0  0  0  0  0  0  0  0  0  0
   -6.6141    2.0406    0.0000 O   0  0  0  0  0  0  0  0  0  0  0  0
   -8.0144   -0.1479    0.0000 O   0  0  0  0  0  0  0  0  0  0  0  0
  1  2  1  0
  2  3  2  0
  2  4  1  0
  4  5  2  0
  5  6  1  0
  6  7  2  0
  7  8  1  0
  8  9  2  0
  9 10  1  0
  1 11  1  0
 11 12  1  0
 12 13  1  0
 13 14  1  0
 14 15  1  0
 15 16  1  6
 15 17  1  0
 17 18  2  0
 17 19  1  0
  9  4  1  0
M  END
>  <rName>  (1487) 
Lys_N62Abz

>  <PQ_SYMBOL>  (1487) 
Lys_N62Abz

>  <FULL_NAME>  (1487) 
N6-(2-aminobenzoyl)-L-lysine

>  <IUPAC_CONDENSED>  (1487) 
Lys(N6-2Abz)

>  <IUPAC>  (1487) 
(2S)-2-amino-6-(2-aminophenylcarbonylamino)hexanoic acid

>  <TYPE>  (1487) 
Backbone

>  <CLASS>  (1487) 
alpha

>  <ANALOG>  (1487) 
Lys

>  <MOL_WT>  (1487) 
265.3129999999999

>  <LOGP>  (1487) 
0.5808

>  <TPSA>  (1487) 
118.44000000000001

>  <POPULARITY>  (1487) 
6.1

>  <PROTECTED>  (1487) 
TRUE

>  <SMILES>  (1487) 
N(C(=O)c1(ccccc1N))CCCC[C@H](N)C(=O)O

>  <INCHIKEY>  (1487) 
XFEKVIYTYFYQPG-NSHDSACASA-N

$$$$
NMe-Lys_ivDde
     RDKit          2D

 26 26  0  0  0  0  0  0  0  0999 V2000
   -6.0677   -1.0123    0.0000 N   0  0  0  0  0  0  0  0  0  0  0  0
   -7.4571   -1.5776    0.0000 C   0  0  0  0  0  0  0  0  0  0  0  0
   -5.8626    0.4736    0.0000 C   0  0  0  0  0  0  0  0  0  0  0  0
   -4.4732    1.0389    0.0000 C   0  0  0  0  0  0  0  0  0  0  0  0
   -3.2889    0.1183    0.0000 C   0  0  0  0  0  0  0  0  0  0  0  0
   -1.8995    0.6836    0.0000 C   0  0  0  0  0  0  0  0  0  0  0  0
   -0.7152   -0.2371    0.0000 C   0  0  0  0  0  0  0  0  0  0  0  0
    0.6742    0.3282    0.0000 N   0  0  0  0  0  0  0  0  0  0  0  0
    1.8584   -0.5924    0.0000 C   0  0  0  0  0  0  0  0  0  0  0  0
    1.6533   -2.0783    0.0000 C   0  0  0  0  0  0  0  0  0  0  0  0
    0.2639   -2.6436    0.0000 C   0  0  0  0  0  0  0  0  0  0  0  0
    0.0587   -4.1295    0.0000 C   0  0  0  0  0  0  0  0  0  0  0  0
   -0.9204   -1.7230    0.0000 C   0  0  0  0  0  0  0  0  0  0  0  0
    3.2478   -0.0271    0.0000 C   0  0  0  0  0  0  0  0  0  0  0  0
    3.4530    1.4588    0.0000 C   0  0  0  0  0  0  0  0  0  0  0  0
    2.2687    2.3794    0.0000 O   0  0  0  0  0  0  0  0  0  0  0  0
    4.8424    2.0241    0.0000 C   0  0  0  0  0  0  0  0  0  0  0  0
    6.0266    1.1035    0.0000 C   0  0  0  0  0  0  0  0  0  0  0  0
    6.7276    2.4296    0.0000 C   0  0  0  0  0  0  0  0  0  0  0  0
    7.4543    0.6434    0.0000 C   0  0  0  0  0  0  0  0  0  0  0  0
    5.8215   -0.3824    0.0000 C   0  0  0  0  0  0  0  0  0  0  0  0
    4.4321   -0.9477    0.0000 C   0  0  0  0  0  0  0  0  0  0  0  0
    4.2269   -2.4336    0.0000 O   0  0  0  0  0  0  0  0  0  0  0  0
   -7.0468    1.3942    0.0000 C   0  0  0  0  0  0  0  0  0  0  0  0
   -6.8417    2.8801    0.0000 O   0  0  0  0  0  0  0  0  0  0  0  0
   -8.4362    0.8289    0.0000 O   0  0  0  0  0  0  0  0  0  0  0  0
  1  2  1  0
  1  3  1  0
  3  4  1  6
  4  5  1  0
  5  6  1  0
  6  7  1  0
  7  8  1  0
  8  9  2  0
  9 10  1  0
 10 11  1  0
 11 12  1  0
 11 13  1  0
  9 14  1  0
 14 15  2  0
 15 16  1  0
 15 17  1  0
 17 18  1  0
 18 19  1  0
 18 20  1  0
 18 21  1  0
 21 22  1  0
 22 23  2  0
  3 24  1  0
 24 25  2  0
 24 26  1  0
 22 14  1  0
M  END
>  <rName>  (1488) 
NMe-Lys_ivDde

>  <PQ_SYMBOL>  (1488) 
NMe-Lys_ivDde

>  <FULL_NAME>  (1488) 
(E)-N6-(1-(2-hydroxy-4,4-dimethyl-6-oxocyclohex-1-en-1-yl)-3-methylbutylidene)-N2-methyl-L-lysine

>  <IUPAC_CONDENSED>  (1488) 
Me-Lys(ivDde)

>  <IUPAC>  (1488) 
(2S)-6-(((1E)-1-(2-hydroxy-4,4-dimethyl-6-oxocyclohex-1-en-1-yl)-3-methylbutylidene)amino)-2-(methylamino)hexanoic acid

>  <TYPE>  (1488) 
Backbone

>  <CLASS>  (1488) 
alpha

>  <ANALOG>  (1488) 
X

>  <MOL_WT>  (1488) 
366.5020000000002

>  <LOGP>  (1488) 
3.5176000000000016

>  <TPSA>  (1488) 
98.99000000000001

>  <POPULARITY>  (1488) 
2.9

>  <PROTECTED>  (1488) 
TRUE

>  <SMILES>  (1488) 
N(C)[C@@H](CCCC/N=C(\CC(C)C)C1=C(O)CC(C)(C)CC1=O)C(=O)O

>  <INCHIKEY>  (1488) 
BZUOWDLXRSHVEH-UGHXVNEISA-N

$$$$
bAla_2REt
     RDKit          2D

  8  7  0  0  0  0  0  0  0  0999 V2000
    2.5981    0.5625    0.0000 N   0  0  0  0  0  0  0  0  0  0  0  0
    1.2990    1.3125    0.0000 C   0  0  0  0  0  0  0  0  0  0  0  0
    0.0000    0.5625    0.0000 C   0  0  0  0  0  0  0  0  0  0  0  0
   -1.2990    1.3125    0.0000 C   0  0  0  0  0  0  0  0  0  0  0  0
   -2.5981    0.5625    0.0000 C   0  0  0  0  0  0  0  0  0  0  0  0
    0.0000   -0.9375    0.0000 C   0  0  0  0  0  0  0  0  0  0  0  0
   -1.2990   -1.6875    0.0000 O   0  0  0  0  0  0  0  0  0  0  0  0
    1.2990   -1.6875    0.0000 O   0  0  0  0  0  0  0  0  0  0  0  0
  1  2  1  0
  3  2  1  6
  3  4  1  0
  4  5  1  0
  3  6  1  0
  6  7  2  0
  6  8  1  0
M  END
>  <rName>  (1489) 
bAla_2REt

>  <PQ_SYMBOL>  (1489) 
bAla_2REt

>  <FULL_NAME>  (1489) 
(R)-2-(aminomethyl)butanoic acid

>  <IUPAC_CONDENSED>  (1489) 
bAla(2R-Et)

>  <IUPAC>  (1489) 
(2R)-2-(aminomethyl)butanoic acid

>  <TYPE>  (1489) 
Backbone

>  <CLASS>  (1489) 
beta

>  <ANALOG>  (1489) 
Ala

>  <MOL_WT>  (1489) 
117.14799999999998

>  <LOGP>  (1489) 
0.05590000000000023

>  <TPSA>  (1489) 
63.32000000000001

>  <POPULARITY>  (1489) 
17.3

>  <PROTECTED>  (1489) 
TRUE

>  <SMILES>  (1489) 
NC[C@@H](CC)C(=O)O

>  <INCHIKEY>  (1489) 
HBICVCPHTYGKKD-SCSAIBSYSA-N

$$$$
Nle_Ph
     RDKit          2D

 15 15  0  0  0  0  0  0  0  0999 V2000
   -3.8892   -1.8424    0.0000 N   0  0  0  0  0  0  0  0  0  0  0  0
   -3.7074   -0.3535    0.0000 C   0  0  0  0  0  0  0  0  0  0  0  0
   -2.3271    0.2336    0.0000 C   0  0  0  0  0  0  0  0  0  0  0  0
   -1.1285   -0.6682    0.0000 C   0  0  0  0  0  0  0  0  0  0  0  0
    0.2518   -0.0811    0.0000 C   0  0  0  0  0  0  0  0  0  0  0  0
    1.4504   -0.9830    0.0000 C   0  0  0  0  0  0  0  0  0  0  0  0
    2.8308   -0.3959    0.0000 C   0  0  0  0  0  0  0  0  0  0  0  0
    3.0125    1.0931    0.0000 C   0  0  0  0  0  0  0  0  0  0  0  0
    4.3928    1.6802    0.0000 C   0  0  0  0  0  0  0  0  0  0  0  0
    5.5914    0.7783    0.0000 C   0  0  0  0  0  0  0  0  0  0  0  0
    5.4097   -0.7106    0.0000 C   0  0  0  0  0  0  0  0  0  0  0  0
    4.0294   -1.2977    0.0000 C   0  0  0  0  0  0  0  0  0  0  0  0
   -4.9060    0.5484    0.0000 C   0  0  0  0  0  0  0  0  0  0  0  0
   -4.7243    2.0373    0.0000 O   0  0  0  0  0  0  0  0  0  0  0  0
   -6.2864   -0.0387    0.0000 O   0  0  0  0  0  0  0  0  0  0  0  0
  2  1  1  6
  2  3  1  0
  3  4  1  0
  4  5  1  0
  5  6  1  0
  6  7  1  0
  7  8  2  0
  8  9  1  0
  9 10  2  0
 10 11  1  0
 11 12  2  0
  2 13  1  0
 13 14  2  0
 13 15  1  0
 12  7  1  0
M  END
>  <rName>  (1490) 
Nle_Ph

>  <PQ_SYMBOL>  (1490) 
Nle_Ph

>  <FULL_NAME>  (1490) 
(S)-2-amino-6-phenylhexanoic acid

>  <IUPAC_CONDENSED>  (1490) 
Nle(Ph)

>  <IUPAC>  (1490) 
(2S)-2-amino-6-phenylhexanoic acid

>  <TYPE>  (1490) 
Backbone

>  <CLASS>  (1490) 
alpha

>  <ANALOG>  (1490) 
X

>  <MOL_WT>  (1490) 
207.273

>  <LOGP>  (1490) 
1.8113000000000001

>  <TPSA>  (1490) 
63.32000000000001

>  <POPULARITY>  (1490) 
9

>  <PROTECTED>  (1490) 
TRUE

>  <SMILES>  (1490) 
N[C@@H](CCCCc1(ccccc1))C(=O)O

>  <INCHIKEY>  (1490) 
PZXDKILRPSNHBC-NSHDSACASA-N

$$$$
Gly_adamantyl
     RDKit          2D

 15 17  0  0  0  0  0  0  0  0999 V2000
   -1.4385   -1.9134    0.0000 N   0  0  0  0  0  0  0  0  0  0  0  0
   -1.3594   -0.4155    0.0000 C   0  0  0  0  0  0  0  0  0  0  0  0
   -0.0227    0.2650    0.0000 C   0  0  0  0  0  0  0  0  0  0  0  0
    1.2350   -0.5525    0.0000 C   0  0  0  0  0  0  0  0  0  0  0  0
    2.5718    0.1280    0.0000 C   0  0  0  0  0  0  0  0  0  0  0  0
    2.6509    1.6259    0.0000 C   0  0  0  0  0  0  0  0  0  0  0  0
    1.3932    2.4433    0.0000 C   0  0  0  0  0  0  0  0  0  0  0  0
    0.4755   -0.7136    0.0000 C   0  0  0  0  0  0  0  0  0  0  0  0
    1.1559   -2.0504    0.0000 C   0  0  0  0  0  0  0  0  0  0  0  0
    2.4927   -1.3700    0.0000 C   0  0  0  0  0  0  0  0  0  0  0  0
   -0.1018   -1.2330    0.0000 C   0  0  0  0  0  0  0  0  0  0  0  0
    0.0564    1.7629    0.0000 C   0  0  0  0  0  0  0  0  0  0  0  0
   -2.6171    0.4020    0.0000 C   0  0  0  0  0  0  0  0  0  0  0  0
   -2.5380    1.8999    0.0000 O   0  0  0  0  0  0  0  0  0  0  0  0
   -3.9539   -0.2785    0.0000 O   0  0  0  0  0  0  0  0  0  0  0  0
  2  1  1  6
  2  3  1  0
  3  4  1  0
  4  5  1  0
  5  6  1  0
  6  7  1  0
  7  8  1  0
  8  9  1  0
  9 10  1  0
  9 11  1  0
  7 12  1  0
  2 13  1  0
 13 14  2  0
 13 15  1  0
 10  5  1  0
 11  3  1  0
 12  3  1  0
M  END
>  <rName>  (1491) 
Gly_adamantyl

>  <PQ_SYMBOL>  (1491) 
Gly_adamantyl

>  <FULL_NAME>  (1491) 
(S)-2-(adamantan-1-yl)-2-aminoacetic acid

>  <IUPAC_CONDENSED>  (1491) 
Gly(adamantyl)

>  <IUPAC>  (1491) 
(2S)-2-(adamantan-1-yl)-2-aminoacetic acid

>  <TYPE>  (1491) 
Backbone

>  <CLASS>  (1491) 
alpha

>  <ANALOG>  (1491) 
X

>  <MOL_WT>  (1491) 
209.28899999999993

>  <LOGP>  (1491) 
1.6147

>  <TPSA>  (1491) 
63.32000000000001

>  <POPULARITY>  (1491) 
7.5

>  <PROTECTED>  (1491) 
TRUE

>  <SMILES>  (1491) 
N[C@@H](C32(CC1(CC(CC(C1)C2)C3)))C(=O)O

>  <INCHIKEY>  (1491) 
NJRFVURYVWPLKB-PZLWRYNDSA-N

$$$$
Asu_Oallyl
     RDKit          2D

 16 15  0  0  0  0  0  0  0  0999 V2000
    4.5859   -1.8424    0.0000 N   0  0  0  0  0  0  0  0  0  0  0  0
    4.6211   -0.3428    0.0000 C   0  0  0  0  0  0  0  0  0  0  0  0
    3.3400    0.4374    0.0000 C   0  0  0  0  0  0  0  0  0  0  0  0
    2.0237   -0.2819    0.0000 C   0  0  0  0  0  0  0  0  0  0  0  0
    0.7426    0.4983    0.0000 C   0  0  0  0  0  0  0  0  0  0  0  0
   -0.5737   -0.2210    0.0000 C   0  0  0  0  0  0  0  0  0  0  0  0
   -1.8548    0.5593    0.0000 C   0  0  0  0  0  0  0  0  0  0  0  0
   -3.1710   -0.1601    0.0000 C   0  0  0  0  0  0  0  0  0  0  0  0
   -3.2062   -1.6596    0.0000 O   0  0  0  0  0  0  0  0  0  0  0  0
   -4.4521    0.6202    0.0000 O   0  0  0  0  0  0  0  0  0  0  0  0
   -5.7684   -0.0991    0.0000 C   0  0  0  0  0  0  0  0  0  0  0  0
   -7.0495    0.6811    0.0000 C   0  0  0  0  0  0  0  0  0  0  0  0
   -8.3658   -0.0382    0.0000 C   0  0  0  0  0  0  0  0  0  0  0  0
    5.9373    0.3765    0.0000 C   0  0  0  0  0  0  0  0  0  0  0  0
    5.9725    1.8761    0.0000 O   0  0  0  0  0  0  0  0  0  0  0  0
    7.2184   -0.4038    0.0000 O   0  0  0  0  0  0  0  0  0  0  0  0
  2  1  1  1
  2  3  1  0
  3  4  1  0
  4  5  1  0
  5  6  1  0
  6  7  1  0
  7  8  1  0
  8  9  2  0
  8 10  1  0
 10 11  1  0
 11 12  1  0
 12 13  2  0
  2 14  1  0
 14 15  2  0
 14 16  1  0
M  END
>  <rName>  (1492) 
Asu_Oallyl

>  <PQ_SYMBOL>  (1492) 
Asu_Oallyl

>  <FULL_NAME>  (1492) 
(S)-8-(allyloxy)-2-amino-8-oxooctanoic acid

>  <IUPAC_CONDENSED>  (1492) 
Asu(Oallyl)

>  <IUPAC>  (1492) 
(2S)-2-amino-7-(((prop-2-en-1-yl)oxy)carbonyl)heptanoic acid

>  <TYPE>  (1492) 
Backbone

>  <CLASS>  (1492) 
alpha

>  <ANALOG>  (1492) 
X

>  <MOL_WT>  (1492) 
229.27599999999998

>  <LOGP>  (1492) 
1.0779999999999998

>  <TPSA>  (1492) 
89.62000000000002

>  <POPULARITY>  (1492) 
3.6

>  <PROTECTED>  (1492) 
TRUE

>  <SMILES>  (1492) 
N[C@@H](CCCCCC(=O)OCC=C)C(=O)O

>  <INCHIKEY>  (1492) 
QEAPIOKHHBBIOG-VIFPVBQESA-N

$$$$
bAla_3Bu
     RDKit          2D

 10  9  0  0  0  0  0  0  0  0999 V2000
   -0.3386    1.4842    0.0000 N   0  0  0  0  0  0  0  0  0  0  0  0
   -0.2594   -0.0137    0.0000 C   0  0  0  0  0  0  0  0  0  0  0  0
    1.0773   -0.6941    0.0000 C   0  0  0  0  0  0  0  0  0  0  0  0
    2.3350    0.1233    0.0000 C   0  0  0  0  0  0  0  0  0  0  0  0
    3.6718   -0.5571    0.0000 C   0  0  0  0  0  0  0  0  0  0  0  0
    4.9295    0.2604    0.0000 C   0  0  0  0  0  0  0  0  0  0  0  0
   -1.5171   -0.8312    0.0000 C   0  0  0  0  0  0  0  0  0  0  0  0
   -2.8539   -0.1507    0.0000 C   0  0  0  0  0  0  0  0  0  0  0  0
   -2.9330    1.3472    0.0000 O   0  0  0  0  0  0  0  0  0  0  0  0
   -4.1116   -0.9682    0.0000 O   0  0  0  0  0  0  0  0  0  0  0  0
  1  2  1  0
  2  3  1  0
  3  4  1  0
  4  5  1  0
  5  6  1  0
  2  7  1  0
  7  8  1  0
  8  9  2  0
  8 10  1  0
M  END
>  <rName>  (1493) 
bAla_3Bu

>  <PQ_SYMBOL>  (1493) 
bAla_3Bu

>  <FULL_NAME>  (1493) 
3-aminoheptanoic acid

>  <IUPAC_CONDENSED>  (1493) 
bAla(3-Bu)

>  <IUPAC>  (1493) 
3-aminoheptanoic acid

>  <TYPE>  (1493) 
Backbone

>  <CLASS>  (1493) 
beta

>  <ANALOG>  (1493) 
Leu

>  <MOL_WT>  (1493) 
145.202

>  <LOGP>  (1493) 
0.9785999999999997

>  <TPSA>  (1493) 
63.32000000000001

>  <POPULARITY>  (1493) 
14.4

>  <PROTECTED>  (1493) 
TRUE

>  <SMILES>  (1493) 
NC(CCCC)CC(=O)O

>  <INCHIKEY>  (1493) 
FUENJGFCFZKXBX-UHFFFAOYSA-N

$$$$
b2Ac6c
     RDKit          2D

 11 11  0  0  0  0  0  0  0  0999 V2000
   -0.7853   -2.6007    0.0000 N   0  0  0  0  0  0  0  0  0  0  0  0
   -1.2281   -1.1676    0.0000 C   0  0  0  0  0  0  0  0  0  0  0  0
   -0.2083   -0.0675    0.0000 C   0  0  0  0  0  0  0  0  0  0  0  0
    0.3737    1.3149    0.0000 C   0  0  0  0  0  0  0  0  0  0  0  0
    1.8620    1.5021    0.0000 C   0  0  0  0  0  0  0  0  0  0  0  0
    2.7683    0.3068    0.0000 C   0  0  0  0  0  0  0  0  0  0  0  0
    2.1862   -1.0757    0.0000 C   0  0  0  0  0  0  0  0  0  0  0  0
    0.6979   -1.2628    0.0000 C   0  0  0  0  0  0  0  0  0  0  0  0
   -1.4687    0.7457    0.0000 C   0  0  0  0  0  0  0  0  0  0  0  0
   -2.8032    0.0608    0.0000 O   0  0  0  0  0  0  0  0  0  0  0  0
   -1.3946    2.2439    0.0000 O   0  0  0  0  0  0  0  0  0  0  0  0
  1  2  1  0
  2  3  1  0
  3  4  1  0
  4  5  1  0
  5  6  1  0
  6  7  1  0
  7  8  1  0
  3  9  1  0
  9 10  2  0
  9 11  1  0
  8  3  1  0
M  END
>  <rName>  (1494) 
b2Ac6c

>  <PQ_SYMBOL>  (1494) 
b2Ac6c

>  <FULL_NAME>  (1494) 
1-(aminomethyl)cyclohexane-1-carboxylic acid

>  <IUPAC_CONDENSED>  (1494) 
b2Ac6c

>  <IUPAC>  (1494) 
1-(aminomethyl)cyclohexanecarboxylic acid

>  <TYPE>  (1494) 
Backbone

>  <CLASS>  (1494) 
beta

>  <ANALOG>  (1494) 
X

>  <MOL_WT>  (1494) 
157.213

>  <LOGP>  (1494) 
0.9802

>  <TPSA>  (1494) 
63.32000000000001

>  <POPULARITY>  (1494) 
10.3

>  <PROTECTED>  (1494) 
TRUE

>  <SMILES>  (1494) 
NCC1(CCCCC1)C(=O)O

>  <INCHIKEY>  (1494) 
UAFHRUBCOQPFFM-UHFFFAOYSA-N

$$$$
D-Leu_45dehydro
     RDKit          2D

  9  8  0  0  0  0  0  0  0  0999 V2000
    0.2826   -1.7410    0.0000 N   0  0  0  0  0  0  0  0  0  0  0  0
    0.5402   -0.2633    0.0000 C   0  0  0  0  0  0  0  0  0  0  0  0
   -0.6108    0.6986    0.0000 C   0  0  0  0  0  0  0  0  0  0  0  0
   -2.0193    0.1828    0.0000 C   0  0  0  0  0  0  0  0  0  0  0  0
   -3.1703    1.1447    0.0000 C   0  0  0  0  0  0  0  0  0  0  0  0
   -2.2769   -1.2950    0.0000 C   0  0  0  0  0  0  0  0  0  0  0  0
    1.9487    0.2525    0.0000 C   0  0  0  0  0  0  0  0  0  0  0  0
    2.2062    1.7302    0.0000 O   0  0  0  0  0  0  0  0  0  0  0  0
    3.0997   -0.7094    0.0000 O   0  0  0  0  0  0  0  0  0  0  0  0
  2  1  1  6
  2  3  1  0
  3  4  1  0
  4  5  2  0
  4  6  1  0
  2  7  1  0
  7  8  2  0
  7  9  1  0
M  END
>  <rName>  (1495) 
D-Leu_45dehydro

>  <PQ_SYMBOL>  (1495) 
D-Leu_45dehydro

>  <FULL_NAME>  (1495) 
(R)-2-amino-4-methylpent-4-enoic acid

>  <IUPAC_CONDENSED>  (1495) 
D-Leu(4,5-dehydro)

>  <IUPAC>  (1495) 
(2R)-2-amino-4-methylpent-4-enoic acid

>  <TYPE>  (1495) 
Backbone

>  <CLASS>  (1495) 
alpha

>  <ANALOG>  (1495) 
Leu

>  <MOL_WT>  (1495) 
129.159

>  <LOGP>  (1495) 
0.3645

>  <TPSA>  (1495) 
63.32000000000001

>  <POPULARITY>  (1495) 
8.1

>  <PROTECTED>  (1495) 
TRUE

>  <SMILES>  (1495) 
N[C@H](CC(=C)C)C(=O)O

>  <INCHIKEY>  (1495) 
PABWDKROPVYJBH-RXMQYKEDSA-N

$$$$
NMe-D-Phe_3NH2
     RDKit          2D

 14 14  0  0  0  0  0  0  0  0999 V2000
   -1.6735    1.3512    0.0000 N   0  0  0  0  0  0  0  0  0  0  0  0
   -2.9175    2.1893    0.0000 C   0  0  0  0  0  0  0  0  0  0  0  0
   -1.7773   -0.1452    0.0000 C   0  0  0  0  0  0  0  0  0  0  0  0
   -0.5333   -0.9833    0.0000 C   0  0  0  0  0  0  0  0  0  0  0  0
    0.8146   -0.3250    0.0000 C   0  0  0  0  0  0  0  0  0  0  0  0
    0.9184    1.1714    0.0000 C   0  0  0  0  0  0  0  0  0  0  0  0
    2.2662    1.8297    0.0000 C   0  0  0  0  0  0  0  0  0  0  0  0
    3.5102    0.9916    0.0000 C   0  0  0  0  0  0  0  0  0  0  0  0
    3.4064   -0.5048    0.0000 C   0  0  0  0  0  0  0  0  0  0  0  0
    4.6504   -1.3429    0.0000 N   0  0  0  0  0  0  0  0  0  0  0  0
    2.0586   -1.1631    0.0000 C   0  0  0  0  0  0  0  0  0  0  0  0
   -3.1251   -0.8035    0.0000 C   0  0  0  0  0  0  0  0  0  0  0  0
   -3.2289   -2.2999    0.0000 O   0  0  0  0  0  0  0  0  0  0  0  0
   -4.3691    0.0346    0.0000 O   0  0  0  0  0  0  0  0  0  0  0  0
  1  2  1  0
  1  3  1  0
  3  4  1  6
  4  5  1  0
  5  6  2  0
  6  7  1  0
  7  8  2  0
  8  9  1  0
  9 10  1  0
  9 11  2  0
  3 12  1  0
 12 13  2  0
 12 14  1  0
 11  5  1  0
M  END
>  <rName>  (1496) 
NMe-D-Phe_3NH2

>  <PQ_SYMBOL>  (1496) 
NMe-D-Phe_3NH2

>  <FULL_NAME>  (1496) 
(R)-3-(3-aminophenyl)-2-(methylamino)propanoic acid

>  <IUPAC_CONDENSED>  (1496) 
Me-D-Phe(3-NH2)

>  <IUPAC>  (1496) 
(2R)-3-(3-aminophenyl)-2-(methylamino)propanoic acid

>  <TYPE>  (1496) 
Backbone

>  <CLASS>  (1496) 
alpha

>  <ANALOG>  (1496) 
Phe

>  <MOL_WT>  (1496) 
194.23399999999995

>  <LOGP>  (1496) 
0.48389999999999983

>  <TPSA>  (1496) 
75.35

>  <POPULARITY>  (1496) 
6.2

>  <PROTECTED>  (1496) 
TRUE

>  <SMILES>  (1496) 
N(C)[C@H](Cc1(cccc(N)c1))C(=O)O

>  <INCHIKEY>  (1496) 
MUOSUOQGASLARH-SECBINFHSA-N

$$$$
Tyr_EtNH2
     RDKit          2D

 16 16  0  0  0  0  0  0  0  0999 V2000
   -3.0307    1.6397    0.0000 N   0  0  0  0  0  0  0  0  0  0  0  0
   -3.3793    0.1807    0.0000 C   0  0  0  0  0  0  0  0  0  0  0  0
   -2.2900   -0.8506    0.0000 C   0  0  0  0  0  0  0  0  0  0  0  0
   -0.8523   -0.4229    0.0000 C   0  0  0  0  0  0  0  0  0  0  0  0
   -0.5038    1.0360    0.0000 C   0  0  0  0  0  0  0  0  0  0  0  0
    0.9340    1.4637    0.0000 C   0  0  0  0  0  0  0  0  0  0  0  0
    2.0232    0.4324    0.0000 C   0  0  0  0  0  0  0  0  0  0  0  0
    3.4609    0.8600    0.0000 O   0  0  0  0  0  0  0  0  0  0  0  0
    4.5502   -0.1713    0.0000 C   0  0  0  0  0  0  0  0  0  0  0  0
    5.9879    0.2564    0.0000 C   0  0  0  0  0  0  0  0  0  0  0  0
    7.0771   -0.7749    0.0000 N   0  0  0  0  0  0  0  0  0  0  0  0
    1.6747   -1.0266    0.0000 C   0  0  0  0  0  0  0  0  0  0  0  0
    0.2369   -1.4542    0.0000 C   0  0  0  0  0  0  0  0  0  0  0  0
   -4.8170   -0.2469    0.0000 C   0  0  0  0  0  0  0  0  0  0  0  0
   -5.1655   -1.7059    0.0000 O   0  0  0  0  0  0  0  0  0  0  0  0
   -5.9062    0.7844    0.0000 O   0  0  0  0  0  0  0  0  0  0  0  0
  2  1  1  1
  2  3  1  0
  3  4  1  0
  4  5  1  0
  5  6  2  0
  6  7  1  0
  7  8  1  0
  8  9  1  0
  9 10  1  0
 10 11  1  0
  7 12  2  0
 12 13  1  0
  2 14  1  0
 14 15  2  0
 14 16  1  0
 13  4  2  0
M  END
>  <rName>  (1497) 
Tyr_EtNH2

>  <PQ_SYMBOL>  (1497) 
Tyr_EtNH2

>  <FULL_NAME>  (1497) 
(S)-2-amino-3-(4-(2-aminoethoxy)phenyl)propanoic acid

>  <IUPAC_CONDENSED>  (1497) 
Tyr(EtNH2)

>  <IUPAC>  (1497) 
(2S)-2-amino-3-(4-((2-aminoethyl)oxy)phenyl)propanoic acid

>  <TYPE>  (1497) 
Backbone

>  <CLASS>  (1497) 
alpha

>  <ANALOG>  (1497) 
Tyr

>  <MOL_WT>  (1497) 
224.25999999999996

>  <LOGP>  (1497) 
-0.021499999999999908

>  <TPSA>  (1497) 
98.57000000000001

>  <POPULARITY>  (1497) 
9.1

>  <PROTECTED>  (1497) 
TRUE

>  <SMILES>  (1497) 
N[C@@H](Cc1(ccc(OCCN)cc1))C(=O)O

>  <INCHIKEY>  (1497) 
YTTSZNIZRJUSDN-JTQLQIEISA-N

$$$$
D-Tyr_EtNH2
     RDKit          2D

 16 16  0  0  0  0  0  0  0  0999 V2000
   -3.0307    1.6397    0.0000 N   0  0  0  0  0  0  0  0  0  0  0  0
   -3.3793    0.1807    0.0000 C   0  0  0  0  0  0  0  0  0  0  0  0
   -2.2900   -0.8506    0.0000 C   0  0  0  0  0  0  0  0  0  0  0  0
   -0.8523   -0.4229    0.0000 C   0  0  0  0  0  0  0  0  0  0  0  0
   -0.5038    1.0360    0.0000 C   0  0  0  0  0  0  0  0  0  0  0  0
    0.9340    1.4637    0.0000 C   0  0  0  0  0  0  0  0  0  0  0  0
    2.0232    0.4324    0.0000 C   0  0  0  0  0  0  0  0  0  0  0  0
    3.4609    0.8600    0.0000 O   0  0  0  0  0  0  0  0  0  0  0  0
    4.5502   -0.1713    0.0000 C   0  0  0  0  0  0  0  0  0  0  0  0
    5.9879    0.2564    0.0000 C   0  0  0  0  0  0  0  0  0  0  0  0
    7.0771   -0.7749    0.0000 N   0  0  0  0  0  0  0  0  0  0  0  0
    1.6747   -1.0266    0.0000 C   0  0  0  0  0  0  0  0  0  0  0  0
    0.2369   -1.4542    0.0000 C   0  0  0  0  0  0  0  0  0  0  0  0
   -4.8170   -0.2469    0.0000 C   0  0  0  0  0  0  0  0  0  0  0  0
   -5.1655   -1.7059    0.0000 O   0  0  0  0  0  0  0  0  0  0  0  0
   -5.9062    0.7844    0.0000 O   0  0  0  0  0  0  0  0  0  0  0  0
  2  1  1  6
  2  3  1  0
  3  4  1  0
  4  5  1  0
  5  6  2  0
  6  7  1  0
  7  8  1  0
  8  9  1  0
  9 10  1  0
 10 11  1  0
  7 12  2  0
 12 13  1  0
  2 14  1  0
 14 15  2  0
 14 16  1  0
 13  4  2  0
M  END
>  <rName>  (1498) 
D-Tyr_EtNH2

>  <PQ_SYMBOL>  (1498) 
D-Tyr_EtNH2

>  <FULL_NAME>  (1498) 
(R)-2-amino-3-(4-(2-aminoethoxy)phenyl)propanoic acid

>  <IUPAC_CONDENSED>  (1498) 
D-Tyr(EtNH2)

>  <IUPAC>  (1498) 
(2R)-2-amino-3-(4-((2-aminoethyl)oxy)phenyl)propanoic acid

>  <TYPE>  (1498) 
Backbone

>  <CLASS>  (1498) 
alpha

>  <ANALOG>  (1498) 
Tyr

>  <MOL_WT>  (1498) 
224.25999999999996

>  <LOGP>  (1498) 
-0.021499999999999908

>  <TPSA>  (1498) 
98.57000000000001

>  <POPULARITY>  (1498) 
4.9

>  <PROTECTED>  (1498) 
TRUE

>  <SMILES>  (1498) 
N[C@H](Cc1(ccc(OCCN)cc1))C(=O)O

>  <INCHIKEY>  (1498) 
YTTSZNIZRJUSDN-SNVBAGLBSA-N

$$$$
hPro_4ROCO2H
     RDKit          2D

 13 13  0  0  0  0  0  0  0  0999 V2000
    1.0606   -1.4239    0.0000 N   0  0  0  0  0  0  0  0  0  0  0  0
    1.0024    0.0749    0.0000 C   0  0  0  0  0  0  0  0  0  0  0  0
   -0.4411    0.4827    0.0000 C   0  0  0  0  0  0  0  0  0  0  0  0
   -1.2750   -0.7641    0.0000 C   0  0  0  0  0  0  0  0  0  0  0  0
   -2.7739   -0.8223    0.0000 O   0  0  0  0  0  0  0  0  0  0  0  0
   -3.5737    0.4466    0.0000 C   0  0  0  0  0  0  0  0  0  0  0  0
   -2.8747    1.7738    0.0000 O   0  0  0  0  0  0  0  0  0  0  0  0
   -5.0726    0.3884    0.0000 O   0  0  0  0  0  0  0  0  0  0  0  0
   -0.3469   -1.9425    0.0000 C   0  0  0  0  0  0  0  0  0  0  0  0
    2.1808    1.0031    0.0000 C   0  0  0  0  0  0  0  0  0  0  0  0
    3.5737    0.4466    0.0000 C   0  0  0  0  0  0  0  0  0  0  0  0
    3.7883   -1.0380    0.0000 O   0  0  0  0  0  0  0  0  0  0  0  0
    4.7521    1.3747    0.0000 O   0  0  0  0  0  0  0  0  0  0  0  0
  1  2  1  0
  2  3  1  0
  3  4  1  0
  4  5  1  6
  5  6  1  0
  6  7  2  0
  6  8  1  0
  4  9  1  0
  2 10  1  1
 10 11  1  0
 11 12  2  0
 11 13  1  0
  9  1  1  0
M  END
>  <rName>  (1499) 
hPro_4ROCO2H

>  <PQ_SYMBOL>  (1499) 
hPro_4ROCO2H

>  <FULL_NAME>  (1499) 
2-((2S,4R)-4-(carboxyoxy)pyrrolidin-2-yl)acetic acid

>  <IUPAC_CONDENSED>  (1499) 
hPro(4R-OCO2H)

>  <IUPAC>  (1499) 
(3R,5S)-5-(2-hydroxy-2-oxoethyl)pyrrolidin-3-yl hydrogen carbonate

>  <TYPE>  (1499) 
Backbone

>  <CLASS>  (1499) 
beta

>  <ANALOG>  (1499) 
Pro

>  <MOL_WT>  (1499) 
189.16699999999997

>  <LOGP>  (1499) 
-0.1138000000000004

>  <TPSA>  (1499) 
95.86

>  <POPULARITY>  (1499) 
2.5

>  <PROTECTED>  (1499) 
TRUE

>  <SMILES>  (1499) 
N1[C@@H](C[C@@H](OC(=O)O)C1)CC(=O)O

>  <INCHIKEY>  (1499) 
SHPVYUXXJREYHW-CRCLSJGQSA-N

$$$$
D-aMePhe_25diF
     RDKit          2D

 15 15  0  0  0  0  0  0  0  0999 V2000
   -0.6059    1.5377    0.0000 N   0  0  0  0  0  0  0  0  0  0  0  0
   -1.8190    0.6555    0.0000 C   0  0  0  0  0  0  0  0  0  0  0  0
   -2.7012    1.8687    0.0000 C   0  0  0  0  0  0  0  0  0  0  0  0
   -0.9368   -0.5576    0.0000 C   0  0  0  0  0  0  0  0  0  0  0  0
    0.5549   -0.4002    0.0000 C   0  0  0  0  0  0  0  0  0  0  0  0
    1.1644    0.9704    0.0000 C   0  0  0  0  0  0  0  0  0  0  0  0
    2.6561    1.1278    0.0000 C   0  0  0  0  0  0  0  0  0  0  0  0
    3.2657    2.4984    0.0000 F   0  0  0  0  0  0  0  0  0  0  0  0
    3.5383   -0.0854    0.0000 C   0  0  0  0  0  0  0  0  0  0  0  0
    2.9288   -1.4559    0.0000 C   0  0  0  0  0  0  0  0  0  0  0  0
    1.4371   -1.6134    0.0000 C   0  0  0  0  0  0  0  0  0  0  0  0
    0.8275   -2.9839    0.0000 F   0  0  0  0  0  0  0  0  0  0  0  0
   -3.0322   -0.2266    0.0000 C   0  0  0  0  0  0  0  0  0  0  0  0
   -2.8748   -1.7184    0.0000 O   0  0  0  0  0  0  0  0  0  0  0  0
   -4.4028    0.3829    0.0000 O   0  0  0  0  0  0  0  0  0  0  0  0
  1  2  1  0
  2  3  1  1
  2  4  1  0
  4  5  1  0
  5  6  1  0
  6  7  2  0
  7  8  1  0
  7  9  1  0
  9 10  2  0
 10 11  1  0
 11 12  1  0
  2 13  1  0
 13 14  2  0
 13 15  1  0
 11  5  2  0
M  END
>  <rName>  (1500) 
D-aMePhe_25diF

>  <PQ_SYMBOL>  (1500) 
D-aMePhe_25diF

>  <FULL_NAME>  (1500) 
(R)-2-amino-3-(2,5-difluorophenyl)-2-methylpropanoic acid

>  <IUPAC_CONDENSED>  (1500) 
D-aMePhe(2,5-diF)

>  <IUPAC>  (1500) 
(2R)-2-amino-2-((2,5-difluorophenyl)methyl)propanoic acid

>  <TYPE>  (1500) 
Backbone

>  <CLASS>  (1500) 
alpha

>  <ANALOG>  (1500) 
Phe

>  <MOL_WT>  (1500) 
215.19899999999998

>  <LOGP>  (1500) 
1.3093

>  <TPSA>  (1500) 
63.32000000000001

>  <POPULARITY>  (1500) 
3

>  <PROTECTED>  (1500) 
TRUE

>  <SMILES>  (1500) 
N[C@](C)(Cc1(cc(F)ccc1F))C(=O)O

>  <INCHIKEY>  (1500) 
KVCNBKXHLOATHI-SNVBAGLBSA-N

$$$$
Q0003
     RDKit          2D

 22 21  0  0  0  0  0  0  0  0999 V2000
    5.0197   -0.3654    0.0000 N   0  0  0  0  0  0  0  0  0  0  0  0
    3.7192    0.3821    0.0000 C   0  0  0  0  0  0  0  0  0  0  0  0
    2.4216   -0.3704    0.0000 C   0  0  0  0  0  0  0  0  0  0  0  0
    1.1212    0.3772    0.0000 C   0  0  0  0  0  0  0  0  0  0  0  0
   -0.1764   -0.3753    0.0000 O   0  0  0  0  0  0  0  0  0  0  0  0
   -1.4769    0.3722    0.0000 C   0  0  0  0  0  0  0  0  0  0  0  0
   -2.7745   -0.3803    0.0000 C   0  0  0  0  0  0  0  0  0  0  0  0
   -4.0750    0.3672    0.0000 O   0  0  0  0  0  0  0  0  0  0  0  0
   -5.3726   -0.3853    0.0000 C   0  0  0  0  0  0  0  0  0  0  0  0
   -6.6730    0.3622    0.0000 C   0  0  0  0  0  0  0  0  0  0  0  0
   -7.9706   -0.3903    0.0000 O   0  0  0  0  0  0  0  0  0  0  0  0
   -9.2711    0.3572    0.0000 C   0  0  0  0  0  0  0  0  0  0  0  0
  -10.5687   -0.3953    0.0000 C   0  0  0  0  0  0  0  0  0  0  0  0
  -11.8692    0.3522    0.0000 C   0  0  0  0  0  0  0  0  0  0  0  0
  -13.1668   -0.4002    0.0000 N   0  0  0  0  0  0  0  0  0  0  0  0
    6.3173    0.3871    0.0000 C   0  0  0  0  0  0  0  0  0  0  0  0
    6.3144    1.8871    0.0000 O   0  0  0  0  0  0  0  0  0  0  0  0
    7.6178   -0.3604    0.0000 C   0  0  0  0  0  0  0  0  0  0  0  0
    8.9154    0.3921    0.0000 C   0  0  0  0  0  0  0  0  0  0  0  0
   10.2159   -0.3554    0.0000 C   0  0  0  0  0  0  0  0  0  0  0  0
   10.2187   -1.8554    0.0000 O   0  0  0  0  0  0  0  0  0  0  0  0
   11.5135    0.3971    0.0000 O   0  0  0  0  0  0  0  0  0  0  0  0
  1  2  1  0
  2  3  1  0
  3  4  1  0
  4  5  1  0
  5  6  1  0
  6  7  1  0
  7  8  1  0
  8  9  1  0
  9 10  1  0
 10 11  1  0
 11 12  1  0
 12 13  1  0
 13 14  1  0
 14 15  1  0
  1 16  1  0
 16 17  2  0
 16 18  1  0
 18 19  1  0
 19 20  1  0
 20 21  2  0
 20 22  1  0
M  END
>  <rName>  (1501) 
Q0003

>  <PQ_SYMBOL>  (1501) 
Q0003

>  <FULL_NAME>  (1501) 
1-amino-15-oxo-4,7,10-trioxa-14-azaoctadecan-18-oic acid

>  <IUPAC_CONDENSED>  (1501) 


>  <IUPAC>  (1501) 
3-((3-((2-((2-((3-aminopropyl)oxy)ethyl)oxy)ethyl)oxy)propyl)carbamoyl)propanoic acid

>  <TYPE>  (1501) 
Backbone

>  <CLASS>  (1501) 
gamma

>  <ANALOG>  (1501) 
Gly

>  <MOL_WT>  (1501) 
320.386

>  <LOGP>  (1501) 
-0.24389999999999762

>  <TPSA>  (1501) 
120.11

>  <POPULARITY>  (1501) 
5.8

>  <PROTECTED>  (1501) 
TRUE

>  <SMILES>  (1501) 
N(CCCOCCOCCOCCCN)C(=O)CCC(=O)O

>  <INCHIKEY>  (1501) 
FRJNIHLOMXIQKH-UHFFFAOYSA-N

$$$$
Ac6c_4carbonyl
     RDKit          2D

 11 11  0  0  0  0  0  0  0  0999 V2000
    1.6249   -1.5175    0.0000 N   0  0  0  0  0  0  0  0  0  0  0  0
    0.6516   -0.3762    0.0000 C   0  0  0  0  0  0  0  0  0  0  0  0
   -0.3034   -1.5329    0.0000 C   0  0  0  0  0  0  0  0  0  0  0  0
   -1.7826   -1.2842    0.0000 C   0  0  0  0  0  0  0  0  0  0  0  0
   -2.3069    0.1212    0.0000 C   0  0  0  0  0  0  0  0  0  0  0  0
   -3.7861    0.3699    0.0000 O   0  0  0  0  0  0  0  0  0  0  0  0
   -1.3519    1.2779    0.0000 C   0  0  0  0  0  0  0  0  0  0  0  0
    0.1274    1.0292    0.0000 C   0  0  0  0  0  0  0  0  0  0  0  0
    1.9446    0.3841    0.0000 C   0  0  0  0  0  0  0  0  0  0  0  0
    1.9327    1.8841    0.0000 O   0  0  0  0  0  0  0  0  0  0  0  0
    3.2496   -0.3555    0.0000 O   0  0  0  0  0  0  0  0  0  0  0  0
  1  2  1  0
  2  3  1  0
  3  4  1  0
  4  5  1  0
  5  6  2  0
  5  7  1  0
  7  8  1  0
  2  9  1  0
  9 10  2  0
  9 11  1  0
  8  2  1  0
M  END
>  <rName>  (1502) 
Ac6c_4carbonyl

>  <PQ_SYMBOL>  (1502) 
Ac6c_4carbonyl

>  <FULL_NAME>  (1502) 
1-amino-4-oxocyclohexane-1-carboxylic acid

>  <IUPAC_CONDENSED>  (1502) 
Ac6c(4-carbonyl)

>  <IUPAC>  (1502) 
1-amino-4-oxocyclohexanecarboxylic acid

>  <TYPE>  (1502) 
Backbone

>  <CLASS>  (1502) 
alpha

>  <ANALOG>  (1502) 
X

>  <MOL_WT>  (1502) 
157.169

>  <LOGP>  (1502) 
-0.08840000000000053

>  <TPSA>  (1502) 
80.39

>  <POPULARITY>  (1502) 
6.3

>  <PROTECTED>  (1502) 
TRUE

>  <SMILES>  (1502) 
NC1(CCC(=O)CC1)C(=O)O

>  <INCHIKEY>  (1502) 
CESXXYZXSIXCFU-UHFFFAOYSA-N

$$$$
D-aBn4-OHGaba
     RDKit          2D

 15 15  0  0  0  0  0  0  0  0999 V2000
   -0.6563    1.4280    0.0000 N   0  0  0  0  0  0  0  0  0  0  0  0
   -0.9842   -0.0357    0.0000 C   0  0  0  0  0  0  0  0  0  0  0  0
    0.1194   -1.0515    0.0000 C   0  0  0  0  0  0  0  0  0  0  0  0
    1.5510   -0.6037    0.0000 C   0  0  0  0  0  0  0  0  0  0  0  0
    1.8789    0.8600    0.0000 C   0  0  0  0  0  0  0  0  0  0  0  0
    3.3105    1.3078    0.0000 C   0  0  0  0  0  0  0  0  0  0  0  0
    4.4142    0.2919    0.0000 C   0  0  0  0  0  0  0  0  0  0  0  0
    5.8457    0.7397    0.0000 O   0  0  0  0  0  0  0  0  0  0  0  0
    4.0862   -1.1718    0.0000 C   0  0  0  0  0  0  0  0  0  0  0  0
    2.6546   -1.6196    0.0000 C   0  0  0  0  0  0  0  0  0  0  0  0
   -2.4158   -0.4835    0.0000 C   0  0  0  0  0  0  0  0  0  0  0  0
   -3.5195    0.5324    0.0000 C   0  0  0  0  0  0  0  0  0  0  0  0
   -4.9510    0.0846    0.0000 C   0  0  0  0  0  0  0  0  0  0  0  0
   -5.2790   -1.3791    0.0000 O   0  0  0  0  0  0  0  0  0  0  0  0
   -6.0547    1.1005    0.0000 O   0  0  0  0  0  0  0  0  0  0  0  0
  2  1  1  1
  2  3  1  0
  3  4  1  0
  4  5  1  0
  5  6  2  0
  6  7  1  0
  7  8  1  0
  7  9  2  0
  9 10  1  0
  2 11  1  0
 11 12  1  0
 12 13  1  0
 13 14  2  0
 13 15  1  0
 10  4  2  0
M  END
>  <rName>  (1503) 
D-aBn4-OHGaba

>  <PQ_SYMBOL>  (1503) 
D-aBn4-OHGaba

>  <FULL_NAME>  (1503) 
(R)-4-amino-5-(4-hydroxyphenyl)pentanoic acid

>  <IUPAC_CONDENSED>  (1503) 
D-aBn(4-OH)Gaba

>  <IUPAC>  (1503) 
(4R)-4-amino-5-(4-hydroxyphenyl)pentanoic acid

>  <TYPE>  (1503) 
Backbone

>  <CLASS>  (1503) 
gamma

>  <ANALOG>  (1503) 
Tyr

>  <MOL_WT>  (1503) 
209.24499999999995

>  <LOGP>  (1503) 
1.1268000000000002

>  <TPSA>  (1503) 
83.55

>  <POPULARITY>  (1503) 
6.6

>  <PROTECTED>  (1503) 
TRUE

>  <SMILES>  (1503) 
N[C@@H](Cc1(ccc(O)cc1))CCC(=O)O

>  <INCHIKEY>  (1503) 
VHWBYQPKMIHOSS-SECBINFHSA-N

$$$$
D-aBn4-OMeGaba
     RDKit          2D

 16 16  0  0  0  0  0  0  0  0999 V2000
   -1.1017    1.4369    0.0000 N   0  0  0  0  0  0  0  0  0  0  0  0
   -1.4184   -0.0293    0.0000 C   0  0  0  0  0  0  0  0  0  0  0  0
   -0.3070   -1.0367    0.0000 C   0  0  0  0  0  0  0  0  0  0  0  0
    1.1211   -0.5779    0.0000 C   0  0  0  0  0  0  0  0  0  0  0  0
    1.4378    0.8883    0.0000 C   0  0  0  0  0  0  0  0  0  0  0  0
    2.8659    1.3471    0.0000 C   0  0  0  0  0  0  0  0  0  0  0  0
    3.9773    0.3398    0.0000 C   0  0  0  0  0  0  0  0  0  0  0  0
    5.4054    0.7986    0.0000 O   0  0  0  0  0  0  0  0  0  0  0  0
    6.5168   -0.2088    0.0000 C   0  0  0  0  0  0  0  0  0  0  0  0
    3.6606   -1.1264    0.0000 C   0  0  0  0  0  0  0  0  0  0  0  0
    2.2325   -1.5852    0.0000 C   0  0  0  0  0  0  0  0  0  0  0  0
   -2.8465   -0.4881    0.0000 C   0  0  0  0  0  0  0  0  0  0  0  0
   -3.9579    0.5192    0.0000 C   0  0  0  0  0  0  0  0  0  0  0  0
   -5.3860    0.0604    0.0000 C   0  0  0  0  0  0  0  0  0  0  0  0
   -5.7027   -1.4058    0.0000 O   0  0  0  0  0  0  0  0  0  0  0  0
   -6.4974    1.0678    0.0000 O   0  0  0  0  0  0  0  0  0  0  0  0
  2  1  1  1
  2  3  1  0
  3  4  1  0
  4  5  1  0
  5  6  2  0
  6  7  1  0
  7  8  1  0
  8  9  1  0
  7 10  2  0
 10 11  1  0
  2 12  1  0
 12 13  1  0
 13 14  1  0
 14 15  2  0
 14 16  1  0
 11  4  2  0
M  END
>  <rName>  (1504) 
D-aBn4-OMeGaba

>  <PQ_SYMBOL>  (1504) 
D-aBn4-OMeGaba

>  <FULL_NAME>  (1504) 
(R)-4-amino-5-(4-methoxyphenyl)pentanoic acid

>  <IUPAC_CONDENSED>  (1504) 
D-aBn(4-OMe)Gaba

>  <IUPAC>  (1504) 
(4R)-4-amino-5-(4-methoxyphenyl)pentanoic acid

>  <TYPE>  (1504) 
Backbone

>  <CLASS>  (1504) 
gamma

>  <ANALOG>  (1504) 
Tyr

>  <MOL_WT>  (1504) 
223.27199999999996

>  <LOGP>  (1504) 
1.4298000000000002

>  <TPSA>  (1504) 
72.55

>  <POPULARITY>  (1504) 
6.4

>  <PROTECTED>  (1504) 
TRUE

>  <SMILES>  (1504) 
N[C@@H](Cc1(ccc(OC)cc1))CCC(=O)O

>  <INCHIKEY>  (1504) 
XXPONAYSCHUORW-SNVBAGLBSA-N

$$$$
Cys_3carboxypropyl
     RDKit          2D

 13 12  0  0  0  0  0  0  0  0999 V2000
   -2.9072   -1.8790    0.0000 N   0  0  0  0  0  0  0  0  0  0  0  0
   -2.9824   -0.3808    0.0000 C   0  0  0  0  0  0  0  0  0  0  0  0
   -1.7226    0.4334    0.0000 C   0  0  0  0  0  0  0  0  0  0  0  0
   -0.3876   -0.2505    0.0000 S   0  0  0  0  0  0  0  0  0  0  0  0
    0.8722    0.5637    0.0000 C   0  0  0  0  0  0  0  0  0  0  0  0
    2.2072   -0.1202    0.0000 C   0  0  0  0  0  0  0  0  0  0  0  0
    3.4670    0.6940    0.0000 C   0  0  0  0  0  0  0  0  0  0  0  0
    4.8020    0.0101    0.0000 C   0  0  0  0  0  0  0  0  0  0  0  0
    4.8772   -1.4880    0.0000 O   0  0  0  0  0  0  0  0  0  0  0  0
    6.0618    0.8243    0.0000 O   0  0  0  0  0  0  0  0  0  0  0  0
   -4.3175    0.3030    0.0000 C   0  0  0  0  0  0  0  0  0  0  0  0
   -4.3927    1.8012    0.0000 O   0  0  0  0  0  0  0  0  0  0  0  0
   -5.5772   -0.5112    0.0000 O   0  0  0  0  0  0  0  0  0  0  0  0
  2  1  1  6
  2  3  1  0
  3  4  1  0
  4  5  1  0
  5  6  1  0
  6  7  1  0
  7  8  1  0
  8  9  2  0
  8 10  1  0
  2 11  1  0
 11 12  2  0
 11 13  1  0
M  END
>  <rName>  (1505) 
Cys_3carboxypropyl

>  <PQ_SYMBOL>  (1505) 
Cys_3carboxypropyl

>  <FULL_NAME>  (1505) 
(R)-4-((2-amino-2-carboxyethyl)thio)butanoic acid

>  <IUPAC_CONDENSED>  (1505) 
Cys(3-carboxypropyl)

>  <IUPAC>  (1505) 
4-(((2R)-2-amino-3-hydroxy-3-oxopropyl)sulfanyl)butanoic acid

>  <TYPE>  (1505) 
Backbone

>  <CLASS>  (1505) 
alpha

>  <ANALOG>  (1505) 
Cys

>  <MOL_WT>  (1505) 
207.251

>  <LOGP>  (1505) 
-0.0037000000000001476

>  <TPSA>  (1505) 
100.62000000000002

>  <POPULARITY>  (1505) 
5.4

>  <PROTECTED>  (1505) 
TRUE

>  <SMILES>  (1505) 
N[C@@H](CSCCCC(=O)O)C(=O)O

>  <INCHIKEY>  (1505) 
WNFNRNDFHINZLV-YFKPBYRVSA-N

$$$$
Tyr_SO3
     RDKit          2D

 17 17  0  0  0  0  0  0  0  0999 V2000
   -3.1457    1.6694    0.0000 N   0  0  0  0  0  0  0  0  0  0  0  0
   -3.4800    0.2071    0.0000 C   0  0  0  0  0  0  0  0  0  0  0  0
   -2.3807   -0.8135    0.0000 C   0  0  0  0  0  0  0  0  0  0  0  0
   -0.9472   -0.3718    0.0000 C   0  0  0  0  0  0  0  0  0  0  0  0
   -0.6130    1.0905    0.0000 C   0  0  0  0  0  0  0  0  0  0  0  0
    0.8205    1.5322    0.0000 C   0  0  0  0  0  0  0  0  0  0  0  0
    1.9198    0.5116    0.0000 C   0  0  0  0  0  0  0  0  0  0  0  0
    3.3533    0.9532    0.0000 O   0  0  0  0  0  0  0  0  0  0  0  0
    4.4525   -0.0674    0.0000 S   0  0  0  0  0  0  0  0  0  0  0  0
    3.4319   -1.1666    0.0000 O   0  0  0  0  0  0  0  0  0  0  0  0
    5.4731    1.0319    0.0000 O   0  0  0  0  0  0  0  0  0  0  0  0
    5.5518   -1.0880    0.0000 O   0  0  0  0  0  0  0  0  0  0  0  0
    1.5855   -0.9507    0.0000 C   0  0  0  0  0  0  0  0  0  0  0  0
    0.1520   -1.3924    0.0000 C   0  0  0  0  0  0  0  0  0  0  0  0
   -4.9135   -0.2346    0.0000 C   0  0  0  0  0  0  0  0  0  0  0  0
   -5.2477   -1.6969    0.0000 O   0  0  0  0  0  0  0  0  0  0  0  0
   -6.0127    0.7860    0.0000 O   0  0  0  0  0  0  0  0  0  0  0  0
  2  1  1  1
  2  3  1  0
  3  4  1  0
  4  5  1  0
  5  6  2  0
  6  7  1  0
  7  8  1  0
  8  9  1  0
  9 10  2  0
  9 11  2  0
  9 12  1  0
  7 13  2  0
 13 14  1  0
  2 15  1  0
 15 16  2  0
 15 17  1  0
 14  4  2  0
M  CHG  1  12  -1
M  END
>  <rName>  (1506) 
Tyr_SO3

>  <PQ_SYMBOL>  (1506) 
Tyr_SO3

>  <FULL_NAME>  (1506) 
sodium (S)-4-(2-amino-2-carboxyethyl)phenyl sulfate

>  <IUPAC_CONDENSED>  (1506) 
Tyr(SO3-)

>  <IUPAC>  (1506) 
4-((2S)-2-amino-3-hydroxy-3-oxopropyl)phenyl sulfate

>  <TYPE>  (1506) 
Backbone

>  <CLASS>  (1506) 
alpha

>  <ANALOG>  (1506) 
Tyr

>  <MOL_WT>  (1506) 
260.24699999999996

>  <LOGP>  (1506) 
-0.5200000000000002

>  <TPSA>  (1506) 
129.75

>  <POPULARITY>  (1506) 
5.5

>  <PROTECTED>  (1506) 
TRUE

>  <SMILES>  (1506) 
N[C@@H](Cc1(ccc(OS(=O)(=O)[O-])cc1))C(=O)O

>  <INCHIKEY>  (1506) 
CIQHWLTYGMYQQR-QMMMGPOBSA-M

$$$$
Lys_octanoyl
     RDKit          2D

 19 18  0  0  0  0  0  0  0  0999 V2000
   10.5282    0.4930    0.0000 C   0  0  0  0  0  0  0  0  0  0  0  0
    9.2305   -0.2594    0.0000 C   0  0  0  0  0  0  0  0  0  0  0  0
    7.9301    0.4882    0.0000 C   0  0  0  0  0  0  0  0  0  0  0  0
    6.6324   -0.2642    0.0000 C   0  0  0  0  0  0  0  0  0  0  0  0
    5.3320    0.4834    0.0000 C   0  0  0  0  0  0  0  0  0  0  0  0
    4.0344   -0.2689    0.0000 C   0  0  0  0  0  0  0  0  0  0  0  0
    2.7339    0.4787    0.0000 C   0  0  0  0  0  0  0  0  0  0  0  0
    1.4363   -0.2737    0.0000 C   0  0  0  0  0  0  0  0  0  0  0  0
    1.4390   -1.7737    0.0000 O   0  0  0  0  0  0  0  0  0  0  0  0
    0.1359    0.4739    0.0000 N   0  0  0  0  0  0  0  0  0  0  0  0
   -1.1618   -0.2784    0.0000 C   0  0  0  0  0  0  0  0  0  0  0  0
   -2.4622    0.4692    0.0000 C   0  0  0  0  0  0  0  0  0  0  0  0
   -3.7599   -0.2832    0.0000 C   0  0  0  0  0  0  0  0  0  0  0  0
   -5.0603    0.4644    0.0000 C   0  0  0  0  0  0  0  0  0  0  0  0
   -6.3579   -0.2880    0.0000 C   0  0  0  0  0  0  0  0  0  0  0  0
   -6.3552   -1.7880    0.0000 N   0  0  0  0  0  0  0  0  0  0  0  0
   -7.6583    0.4597    0.0000 C   0  0  0  0  0  0  0  0  0  0  0  0
   -7.6611    1.9597    0.0000 O   0  0  0  0  0  0  0  0  0  0  0  0
   -8.9560   -0.2927    0.0000 O   0  0  0  0  0  0  0  0  0  0  0  0
  1  2  1  0
  2  3  1  0
  3  4  1  0
  4  5  1  0
  5  6  1  0
  6  7  1  0
  7  8  1  0
  8  9  2  0
  8 10  1  0
 10 11  1  0
 11 12  1  0
 12 13  1  0
 13 14  1  0
 14 15  1  0
 15 16  1  6
 15 17  1  0
 17 18  2  0
 17 19  1  0
M  END
>  <rName>  (1507) 
Lys_octanoyl

>  <PQ_SYMBOL>  (1507) 
Lys_octanoyl

>  <FULL_NAME>  (1507) 
N6-octanoyl-L-lysine

>  <IUPAC_CONDENSED>  (1507) 
Lys(octanoyl)

>  <IUPAC>  (1507) 
(2S)-2-amino-6-heptylcarbonylaminohexanoic acid

>  <TYPE>  (1507) 
Backbone

>  <CLASS>  (1507) 
alpha

>  <ANALOG>  (1507) 
Lys

>  <MOL_WT>  (1507) 
272.38899999999995

>  <LOGP>  (1507) 
2.0453

>  <TPSA>  (1507) 
92.42

>  <POPULARITY>  (1507) 
7.4

>  <PROTECTED>  (1507) 
TRUE

>  <SMILES>  (1507) 
CCCCCCCC(=O)NCCCC[C@H](N)C(=O)O

>  <INCHIKEY>  (1507) 
DUZODDYGMSCYMJ-LBPRGKRZSA-N

$$$$
NHOCOCH2-G
     RDKit          2D

  9  8  0  0  0  0  0  0  0  0999 V2000
    0.0000    0.0000    0.0000 N   0  0  0  0  0  0  0  0  0  0  0  0
    1.2990   -0.7500    0.0000 C   0  0  0  0  0  0  0  0  0  0  0  0
    2.5981   -0.0000    0.0000 C   0  0  0  0  0  0  0  0  0  0  0  0
    2.5981    1.5000    0.0000 O   0  0  0  0  0  0  0  0  0  0  0  0
    3.8971   -0.7500    0.0000 O   0  0  0  0  0  0  0  0  0  0  0  0
   -1.2990   -0.7500    0.0000 C   0  0  0  0  0  0  0  0  0  0  0  0
   -2.5981    0.0000    0.0000 C   0  0  0  0  0  0  0  0  0  0  0  0
   -2.5981    1.5000    0.0000 O   0  0  0  0  0  0  0  0  0  0  0  0
   -3.8971   -0.7500    0.0000 O   0  0  0  0  0  0  0  0  0  0  0  0
  1  2  1  0
  2  3  1  0
  3  4  2  0
  3  5  1  0
  1  6  1  0
  6  7  1  0
  7  8  2  0
  7  9  1  0
M  END
>  <rName>  (1508) 
NHOCOCH2-G

>  <PQ_SYMBOL>  (1508) 
NHOCOCH2-G

>  <FULL_NAME>  (1508) 
2,2'-azanediyldiacetic acid

>  <IUPAC_CONDENSED>  (1508) 
HOCOCH2-Gly

>  <IUPAC>  (1508) 
2-((2-hydroxy-2-oxoethyl)amino)acetic acid

>  <TYPE>  (1508) 
Backbone

>  <CLASS>  (1508) 
alpha

>  <ANALOG>  (1508) 
Gly

>  <MOL_WT>  (1508) 
133.103

>  <LOGP>  (1508) 
-1.2548

>  <TPSA>  (1508) 
86.63000000000001

>  <POPULARITY>  (1508) 
16.6

>  <PROTECTED>  (1508) 
TRUE

>  <SMILES>  (1508) 
N(CC(=O)O)CC(=O)O

>  <INCHIKEY>  (1508) 
NBZBKCUXIYYUSX-UHFFFAOYSA-N

$$$$
aMePhe_4F
     RDKit          2D

 14 14  0  0  0  0  0  0  0  0999 V2000
   -0.7614    1.4549    0.0000 N   0  0  0  0  0  0  0  0  0  0  0  0
   -1.9195    0.5015    0.0000 C   0  0  0  0  0  0  0  0  0  0  0  0
   -2.8728    1.6596    0.0000 C   0  0  0  0  0  0  0  0  0  0  0  0
   -0.9661   -0.6566    0.0000 C   0  0  0  0  0  0  0  0  0  0  0  0
    0.5135   -0.4100    0.0000 C   0  0  0  0  0  0  0  0  0  0  0  0
    1.0397    0.9947    0.0000 C   0  0  0  0  0  0  0  0  0  0  0  0
    2.5193    1.2413    0.0000 C   0  0  0  0  0  0  0  0  0  0  0  0
    3.4726    0.0832    0.0000 C   0  0  0  0  0  0  0  0  0  0  0  0
    4.9522    0.3298    0.0000 F   0  0  0  0  0  0  0  0  0  0  0  0
    2.9464   -1.3215    0.0000 C   0  0  0  0  0  0  0  0  0  0  0  0
    1.4668   -1.5681    0.0000 C   0  0  0  0  0  0  0  0  0  0  0  0
   -3.0776   -0.4518    0.0000 C   0  0  0  0  0  0  0  0  0  0  0  0
   -4.4822    0.0744    0.0000 O   0  0  0  0  0  0  0  0  0  0  0  0
   -2.8310   -1.9314    0.0000 O   0  0  0  0  0  0  0  0  0  0  0  0
  1  2  1  0
  2  3  1  6
  2  4  1  0
  4  5  1  0
  5  6  1  0
  6  7  2  0
  7  8  1  0
  8  9  1  0
  8 10  2  0
 10 11  1  0
  2 12  1  0
 12 13  2  0
 12 14  1  0
 11  5  2  0
M  END
>  <rName>  (1509) 
aMePhe_4F

>  <PQ_SYMBOL>  (1509) 
aMePhe_4F

>  <FULL_NAME>  (1509) 
(S)-2-amino-3-(4-fluorophenyl)-2-methylpropanoic acid

>  <IUPAC_CONDENSED>  (1509) 
aMePhe(4-F)

>  <IUPAC>  (1509) 
(2S)-2-amino-2-((4-fluorophenyl)methyl)propanoic acid

>  <TYPE>  (1509) 
Backbone

>  <CLASS>  (1509) 
alpha

>  <ANALOG>  (1509) 
Phe

>  <MOL_WT>  (1509) 
197.209

>  <LOGP>  (1509) 
1.1702

>  <TPSA>  (1509) 
63.32000000000001

>  <POPULARITY>  (1509) 
6

>  <PROTECTED>  (1509) 
TRUE

>  <SMILES>  (1509) 
N[C@@](C)(Cc1(ccc(F)cc1))C(=O)O

>  <INCHIKEY>  (1509) 
BBRMBENCQBOTHY-JTQLQIEISA-N

$$$$
Phe_3Oallyl
     RDKit          2D

 16 16  0  0  0  0  0  0  0  0999 V2000
   -3.4045    1.2232    0.0000 N   0  0  0  0  0  0  0  0  0  0  0  0
   -3.0391   -0.2316    0.0000 C   0  0  0  0  0  0  0  0  0  0  0  0
   -1.5965   -0.6426    0.0000 C   0  0  0  0  0  0  0  0  0  0  0  0
   -0.5193    0.4012    0.0000 C   0  0  0  0  0  0  0  0  0  0  0  0
   -0.8847    1.8560    0.0000 C   0  0  0  0  0  0  0  0  0  0  0  0
    0.1926    2.8999    0.0000 C   0  0  0  0  0  0  0  0  0  0  0  0
    1.6352    2.4889    0.0000 C   0  0  0  0  0  0  0  0  0  0  0  0
    2.0005    1.0340    0.0000 C   0  0  0  0  0  0  0  0  0  0  0  0
    3.4431    0.6230    0.0000 O   0  0  0  0  0  0  0  0  0  0  0  0
    3.8085   -0.8318    0.0000 C   0  0  0  0  0  0  0  0  0  0  0  0
    5.2511   -1.2428    0.0000 C   0  0  0  0  0  0  0  0  0  0  0  0
    5.6164   -2.6976    0.0000 C   0  0  0  0  0  0  0  0  0  0  0  0
    0.9233   -0.0098    0.0000 C   0  0  0  0  0  0  0  0  0  0  0  0
   -4.1164   -1.2754    0.0000 C   0  0  0  0  0  0  0  0  0  0  0  0
   -3.7510   -2.7303    0.0000 O   0  0  0  0  0  0  0  0  0  0  0  0
   -5.5590   -0.8644    0.0000 O   0  0  0  0  0  0  0  0  0  0  0  0
  2  1  1  1
  2  3  1  0
  3  4  1  0
  4  5  1  0
  5  6  2  0
  6  7  1  0
  7  8  2  0
  8  9  1  0
  9 10  1  0
 10 11  1  0
 11 12  2  0
  8 13  1  0
  2 14  1  0
 14 15  2  0
 14 16  1  0
 13  4  2  0
M  END
>  <rName>  (1510) 
Phe_3Oallyl

>  <PQ_SYMBOL>  (1510) 
Phe_3Oallyl

>  <FULL_NAME>  (1510) 
(S)-3-(3-(allyloxy)phenyl)-2-aminopropanoic acid

>  <IUPAC_CONDENSED>  (1510) 
Phe(3-Oallyl)

>  <IUPAC>  (1510) 
(2S)-2-amino-3-(3-((prop-2-en-1-yl)oxy)phenyl)propanoic acid

>  <TYPE>  (1510) 
Backbone

>  <CLASS>  (1510) 
alpha

>  <ANALOG>  (1510) 
Tyr

>  <MOL_WT>  (1510) 
221.25599999999994

>  <LOGP>  (1510) 
1.2058000000000002

>  <TPSA>  (1510) 
72.55

>  <POPULARITY>  (1510) 
4.9

>  <PROTECTED>  (1510) 
TRUE

>  <SMILES>  (1510) 
N[C@@H](Cc1(cccc(OCC=C)c1))C(=O)O

>  <INCHIKEY>  (1510) 
WYLZWXCYLFVNHQ-NSHDSACASA-N

$$$$
Ala-Gly
     RDKit          2D

 10  9  0  0  0  0  0  0  0  0999 V2000
    0.1413    0.2180    0.0000 N   0  0  0  0  0  0  0  0  0  0  0  0
   -1.1946   -0.4642    0.0000 C   0  0  0  0  0  0  0  0  0  0  0  0
   -1.2717   -1.9622    0.0000 O   0  0  0  0  0  0  0  0  0  0  0  0
   -2.4533    0.3516    0.0000 C   0  0  0  0  0  0  0  0  0  0  0  0
   -3.7892   -0.3306    0.0000 C   0  0  0  0  0  0  0  0  0  0  0  0
   -2.3762    1.8496    0.0000 N   0  0  0  0  0  0  0  0  0  0  0  0
    1.4001   -0.5978    0.0000 C   0  0  0  0  0  0  0  0  0  0  0  0
    2.7359    0.0845    0.0000 C   0  0  0  0  0  0  0  0  0  0  0  0
    2.8131    1.5825    0.0000 O   0  0  0  0  0  0  0  0  0  0  0  0
    3.9947   -0.7313    0.0000 O   0  0  0  0  0  0  0  0  0  0  0  0
  1  2  1  0
  2  3  2  0
  2  4  1  0
  4  5  1  6
  4  6  1  0
  1  7  1  0
  7  8  1  0
  8  9  2  0
  8 10  1  0
M  END
>  <rName>  (1511) 
Ala-Gly

>  <PQ_SYMBOL>  (1511) 
Ala-Gly

>  <FULL_NAME>  (1511) 
L-alanylglycine

>  <IUPAC_CONDENSED>  (1511) 
Ala-Gly

>  <IUPAC>  (1511) 
2-((1S)-1-aminoethylcarbonylamino)acetic acid

>  <TYPE>  (1511) 
Backbone

>  <CLASS>  (1511) 
alpha

>  <ANALOG>  (1511) 
Gly

>  <MOL_WT>  (1511) 
146.14600000000002

>  <LOGP>  (1511) 
-1.4655999999999998

>  <TPSA>  (1511) 
92.42

>  <POPULARITY>  (1511) 
18.7

>  <PROTECTED>  (1511) 
TRUE

>  <SMILES>  (1511) 
N(C(=O)[C@H](C)N)CC(=O)O

>  <INCHIKEY>  (1511) 
CXISPYVYMQWFLE-VKHMYHEASA-N

$$$$
D-Oic_3axi_7axi
     RDKit          2D

 12 13  0  0  0  0  0  0  0  0999 V2000
   -0.5689    1.2135    0.0000 N   0  0  0  0  0  0  0  0  0  0  0  0
   -1.4506   -0.0000    0.0000 C   0  0  0  0  0  0  0  0  0  0  0  0
   -0.5689   -1.2135    0.0000 C   0  0  0  0  0  0  0  0  0  0  0  0
    0.8577   -0.7500    0.0000 C   0  0  0  0  0  0  0  0  0  0  0  0
    2.1567   -1.5000    0.0000 C   0  0  0  0  0  0  0  0  0  0  0  0
    3.4557   -0.7500    0.0000 C   0  0  0  0  0  0  0  0  0  0  0  0
    3.4557    0.7500    0.0000 C   0  0  0  0  0  0  0  0  0  0  0  0
    2.1567    1.5000    0.0000 C   0  0  0  0  0  0  0  0  0  0  0  0
    0.8577    0.7500    0.0000 C   0  0  0  0  0  0  0  0  0  0  0  0
   -2.9506   -0.0000    0.0000 C   0  0  0  0  0  0  0  0  0  0  0  0
   -3.7006   -1.2990    0.0000 O   0  0  0  0  0  0  0  0  0  0  0  0
   -3.7006    1.2990    0.0000 O   0  0  0  0  0  0  0  0  0  0  0  0
  1  2  1  0
  2  3  1  0
  3  4  1  0
  4  5  1  0
  5  6  1  0
  6  7  1  0
  7  8  1  0
  8  9  1  0
  2 10  1  6
 10 11  2  0
 10 12  1  0
  9  1  1  0
  9  4  1  0
M  END
>  <rName>  (1512) 
D-Oic_3axi_7axi

>  <PQ_SYMBOL>  (1512) 
D-Oic_3axi_7axi

>  <FULL_NAME>  (1512) 
(2R)-octahydro-1H-indole-2-carboxylic acid

>  <IUPAC_CONDENSED>  (1512) 
D-Oic(3axi,7axi)

>  <IUPAC>  (1512) 
(8R)-7-azabicyclo[4.3.0]nonane-8-carboxylic acid

>  <TYPE>  (1512) 
Backbone

>  <CLASS>  (1512) 
alpha

>  <ANALOG>  (1512) 
Pro

>  <MOL_WT>  (1512) 
169.22400000000002

>  <LOGP>  (1512) 
0.9917

>  <TPSA>  (1512) 
49.33

>  <POPULARITY>  (1512) 
7.2

>  <PROTECTED>  (1512) 
TRUE

>  <SMILES>  (1512) 
N1[C@H](CC2(CCCCC12))C(=O)O

>  <INCHIKEY>  (1512) 
CQYBNXGHMBNGCG-KAVNDROISA-N

$$$$
D-Phe_4CONH2
     RDKit          2D

 15 15  0  0  0  0  0  0  0  0999 V2000
   -2.2547    1.6872    0.0000 N   0  0  0  0  0  0  0  0  0  0  0  0
   -2.7489    0.2709    0.0000 C   0  0  0  0  0  0  0  0  0  0  0  0
   -1.7696   -0.8652    0.0000 C   0  0  0  0  0  0  0  0  0  0  0  0
   -0.2959   -0.5852    0.0000 C   0  0  0  0  0  0  0  0  0  0  0  0
    0.1983    0.8311    0.0000 C   0  0  0  0  0  0  0  0  0  0  0  0
    1.6719    1.1111    0.0000 C   0  0  0  0  0  0  0  0  0  0  0  0
    2.6513   -0.0250    0.0000 C   0  0  0  0  0  0  0  0  0  0  0  0
    2.1570   -1.4413    0.0000 C   0  0  0  0  0  0  0  0  0  0  0  0
    0.6834   -1.7213    0.0000 C   0  0  0  0  0  0  0  0  0  0  0  0
    4.1249    0.2550    0.0000 C   0  0  0  0  0  0  0  0  0  0  0  0
    4.6192    1.6713    0.0000 O   0  0  0  0  0  0  0  0  0  0  0  0
    5.1043   -0.8811    0.0000 N   0  0  0  0  0  0  0  0  0  0  0  0
   -4.2225   -0.0091    0.0000 C   0  0  0  0  0  0  0  0  0  0  0  0
   -4.7168   -1.4254    0.0000 O   0  0  0  0  0  0  0  0  0  0  0  0
   -5.2019    1.1270    0.0000 O   0  0  0  0  0  0  0  0  0  0  0  0
  2  1  1  6
  2  3  1  0
  3  4  1  0
  4  5  1  0
  5  6  2  0
  6  7  1  0
  7  8  2  0
  8  9  1  0
  7 10  1  0
 10 11  2  0
 10 12  1  0
  2 13  1  0
 13 14  2  0
 13 15  1  0
  9  4  2  0
M  END
>  <rName>  (1513) 
D-Phe_4CONH2

>  <PQ_SYMBOL>  (1513) 
D-Phe_4CONH2

>  <FULL_NAME>  (1513) 
(R)-2-amino-3-(4-carbamoylphenyl)propanoic acid

>  <IUPAC_CONDENSED>  (1513) 
D-Phe(4-CONH2)

>  <IUPAC>  (1513) 
(2R)-2-amino-3-(4-carbamoylphenyl)propanoic acid

>  <TYPE>  (1513) 
Backbone

>  <CLASS>  (1513) 
alpha

>  <ANALOG>  (1513) 
Phe

>  <MOL_WT>  (1513) 
208.21699999999996

>  <LOGP>  (1513) 
-0.2601000000000003

>  <TPSA>  (1513) 
106.41000000000001

>  <POPULARITY>  (1513) 
5

>  <PROTECTED>  (1513) 
TRUE

>  <SMILES>  (1513) 
N[C@H](Cc1(ccc(cc1)C(=O)N))C(=O)O

>  <INCHIKEY>  (1513) 
OZVAXCWACWDNIQ-MRVPVSSYSA-N

$$$$
D-Phe_3CONH2
     RDKit          2D

 15 15  0  0  0  0  0  0  0  0999 V2000
   -2.6461    1.6149    0.0000 N   0  0  0  0  0  0  0  0  0  0  0  0
   -2.6827    0.1154    0.0000 C   0  0  0  0  0  0  0  0  0  0  0  0
   -1.4023   -0.6660    0.0000 C   0  0  0  0  0  0  0  0  0  0  0  0
   -0.0854    0.0521    0.0000 C   0  0  0  0  0  0  0  0  0  0  0  0
   -0.0488    1.5516    0.0000 C   0  0  0  0  0  0  0  0  0  0  0  0
    1.2681    2.2698    0.0000 C   0  0  0  0  0  0  0  0  0  0  0  0
    2.5485    1.4884    0.0000 C   0  0  0  0  0  0  0  0  0  0  0  0
    2.5119   -0.0112    0.0000 C   0  0  0  0  0  0  0  0  0  0  0  0
    1.1950   -0.7293    0.0000 C   0  0  0  0  0  0  0  0  0  0  0  0
    3.7923   -0.7926    0.0000 C   0  0  0  0  0  0  0  0  0  0  0  0
    5.1093   -0.0745    0.0000 O   0  0  0  0  0  0  0  0  0  0  0  0
    3.7558   -2.2922    0.0000 N   0  0  0  0  0  0  0  0  0  0  0  0
   -3.9996   -0.6028    0.0000 C   0  0  0  0  0  0  0  0  0  0  0  0
   -4.0361   -2.1023    0.0000 O   0  0  0  0  0  0  0  0  0  0  0  0
   -5.2800    0.1787    0.0000 O   0  0  0  0  0  0  0  0  0  0  0  0
  2  1  1  6
  2  3  1  0
  3  4  1  0
  4  5  1  0
  5  6  2  0
  6  7  1  0
  7  8  2  0
  8  9  1  0
  8 10  1  0
 10 11  2  0
 10 12  1  0
  2 13  1  0
 13 14  2  0
 13 15  1  0
  9  4  2  0
M  END
>  <rName>  (1514) 
D-Phe_3CONH2

>  <PQ_SYMBOL>  (1514) 
D-Phe_3CONH2

>  <FULL_NAME>  (1514) 
(R)-2-amino-3-(3-carbamoylphenyl)propanoic acid

>  <IUPAC_CONDENSED>  (1514) 
D-Phe(3-CONH2)

>  <IUPAC>  (1514) 
(2R)-2-amino-3-(3-carbamoylphenyl)propanoic acid

>  <TYPE>  (1514) 
Backbone

>  <CLASS>  (1514) 
alpha

>  <ANALOG>  (1514) 
Phe

>  <MOL_WT>  (1514) 
208.21699999999996

>  <LOGP>  (1514) 
-0.2601000000000003

>  <TPSA>  (1514) 
106.41000000000001

>  <POPULARITY>  (1514) 
4

>  <PROTECTED>  (1514) 
TRUE

>  <SMILES>  (1514) 
N[C@H](Cc1(cccc(c1)C(=O)N))C(=O)O

>  <INCHIKEY>  (1514) 
NUHHYFSZGZXEGU-MRVPVSSYSA-N

$$$$
bAla_3Sprop2ynyl
     RDKit          2D

  9  8  0  0  0  0  0  0  0  0999 V2000
    0.3560   -1.3170    0.0000 N   0  0  0  0  0  0  0  0  0  0  0  0
    0.2798    0.1811    0.0000 C   0  0  0  0  0  0  0  0  0  0  0  0
    1.5392    0.9961    0.0000 C   0  0  0  0  0  0  0  0  0  0  0  0
    2.8746    0.3129    0.0000 C   0  0  0  0  0  0  0  0  0  0  0  0
    4.2100   -0.3702    0.0000 C   0  0  0  0  0  0  0  0  0  0  0  0
   -1.0556    0.8642    0.0000 C   0  0  0  0  0  0  0  0  0  0  0  0
   -2.3149    0.0493    0.0000 C   0  0  0  0  0  0  0  0  0  0  0  0
   -2.2388   -1.4488    0.0000 O   0  0  0  0  0  0  0  0  0  0  0  0
   -3.6503    0.7324    0.0000 O   0  0  0  0  0  0  0  0  0  0  0  0
  2  1  1  6
  2  3  1  0
  3  4  1  0
  4  5  3  0
  2  6  1  0
  6  7  1  0
  7  8  2  0
  7  9  1  0
M  END
>  <rName>  (1515) 
bAla_3Sprop2ynyl

>  <PQ_SYMBOL>  (1515) 
bAla_3Sprop2ynyl

>  <FULL_NAME>  (1515) 
(S)-3-aminohex-5-ynoic acid

>  <IUPAC_CONDENSED>  (1515) 
bAla(3S-prop-2-ynyl)

>  <IUPAC>  (1515) 
(3S)-3-aminohex-5-ynoic acid

>  <TYPE>  (1515) 
Backbone

>  <CLASS>  (1515) 
beta

>  <ANALOG>  (1515) 
Val

>  <MOL_WT>  (1515) 
127.14299999999997

>  <LOGP>  (1515) 
-0.18829999999999997

>  <TPSA>  (1515) 
63.32000000000001

>  <POPULARITY>  (1515) 
5.3

>  <PROTECTED>  (1515) 
TRUE

>  <SMILES>  (1515) 
N[C@@H](CC#C)CC(=O)O

>  <INCHIKEY>  (1515) 
DWFMCQGMVSIJBN-YFKPBYRVSA-N

$$$$
bAla_3Rfur2yl
     RDKit          2D

 11 11  0  0  0  0  0  0  0  0999 V2000
   -0.7304   -1.8619    0.0000 N   0  0  0  0  0  0  0  0  0  0  0  0
   -0.2874   -0.4288    0.0000 C   0  0  0  0  0  0  0  0  0  0  0  0
    1.1751   -0.0958    0.0000 C   0  0  0  0  0  0  0  0  0  0  0  0
    2.3042   -1.0834    0.0000 C   0  0  0  0  0  0  0  0  0  0  0  0
    3.5923   -0.3148    0.0000 C   0  0  0  0  0  0  0  0  0  0  0  0
    3.2594    1.1478    0.0000 C   0  0  0  0  0  0  0  0  0  0  0  0
    1.7655    1.2831    0.0000 O   0  0  0  0  0  0  0  0  0  0  0  0
   -1.3071    0.6714    0.0000 C   0  0  0  0  0  0  0  0  0  0  0  0
   -2.7697    0.3385    0.0000 C   0  0  0  0  0  0  0  0  0  0  0  0
   -3.2126   -1.0946    0.0000 O   0  0  0  0  0  0  0  0  0  0  0  0
   -3.7893    1.4386    0.0000 O   0  0  0  0  0  0  0  0  0  0  0  0
  2  1  1  1
  2  3  1  0
  3  4  2  0
  4  5  1  0
  5  6  2  0
  6  7  1  0
  2  8  1  0
  8  9  1  0
  9 10  2  0
  9 11  1  0
  7  3  1  0
M  END
>  <rName>  (1516) 
bAla_3Rfur2yl

>  <PQ_SYMBOL>  (1516) 
bAla_3Rfur2yl

>  <FULL_NAME>  (1516) 
(S)-3-amino-3-(furan-2-yl)propanoic acid

>  <IUPAC_CONDENSED>  (1516) 
bAla(3R-fur-2-yl)

>  <IUPAC>  (1516) 
(3S)-3-amino-3-(furan-2-yl)propanoic acid

>  <TYPE>  (1516) 
Backbone

>  <CLASS>  (1516) 
beta

>  <ANALOG>  (1516) 
X

>  <MOL_WT>  (1516) 
155.153

>  <LOGP>  (1516) 
0.7541

>  <TPSA>  (1516) 
76.46

>  <POPULARITY>  (1516) 
7.3

>  <PROTECTED>  (1516) 
TRUE

>  <SMILES>  (1516) 
N[C@H](c1(ccco1))CC(=O)O

>  <INCHIKEY>  (1516) 
YIKVKIOGYSPIMP-YFKPBYRVSA-N

$$$$
D-Phe_3Oallyl
     RDKit          2D

 16 16  0  0  0  0  0  0  0  0999 V2000
   -3.4045    1.2232    0.0000 N   0  0  0  0  0  0  0  0  0  0  0  0
   -3.0391   -0.2316    0.0000 C   0  0  0  0  0  0  0  0  0  0  0  0
   -1.5965   -0.6426    0.0000 C   0  0  0  0  0  0  0  0  0  0  0  0
   -0.5193    0.4012    0.0000 C   0  0  0  0  0  0  0  0  0  0  0  0
   -0.8847    1.8560    0.0000 C   0  0  0  0  0  0  0  0  0  0  0  0
    0.1926    2.8999    0.0000 C   0  0  0  0  0  0  0  0  0  0  0  0
    1.6352    2.4889    0.0000 C   0  0  0  0  0  0  0  0  0  0  0  0
    2.0005    1.0340    0.0000 C   0  0  0  0  0  0  0  0  0  0  0  0
    3.4431    0.6230    0.0000 O   0  0  0  0  0  0  0  0  0  0  0  0
    3.8085   -0.8318    0.0000 C   0  0  0  0  0  0  0  0  0  0  0  0
    5.2511   -1.2428    0.0000 C   0  0  0  0  0  0  0  0  0  0  0  0
    5.6164   -2.6976    0.0000 C   0  0  0  0  0  0  0  0  0  0  0  0
    0.9233   -0.0098    0.0000 C   0  0  0  0  0  0  0  0  0  0  0  0
   -4.1164   -1.2754    0.0000 C   0  0  0  0  0  0  0  0  0  0  0  0
   -3.7510   -2.7303    0.0000 O   0  0  0  0  0  0  0  0  0  0  0  0
   -5.5590   -0.8644    0.0000 O   0  0  0  0  0  0  0  0  0  0  0  0
  2  1  1  6
  2  3  1  0
  3  4  1  0
  4  5  1  0
  5  6  2  0
  6  7  1  0
  7  8  2  0
  8  9  1  0
  9 10  1  0
 10 11  1  0
 11 12  2  0
  8 13  1  0
  2 14  1  0
 14 15  2  0
 14 16  1  0
 13  4  2  0
M  END
>  <rName>  (1517) 
D-Phe_3Oallyl

>  <PQ_SYMBOL>  (1517) 
D-Phe_3Oallyl

>  <FULL_NAME>  (1517) 
(R)-3-(3-(allyloxy)phenyl)-2-aminopropanoic acid

>  <IUPAC_CONDENSED>  (1517) 
D-Phe(3-Oallyl)

>  <IUPAC>  (1517) 
(2R)-2-amino-3-(3-((prop-2-en-1-yl)oxy)phenyl)propanoic acid

>  <TYPE>  (1517) 
Backbone

>  <CLASS>  (1517) 
alpha

>  <ANALOG>  (1517) 
Tyr

>  <MOL_WT>  (1517) 
221.25599999999994

>  <LOGP>  (1517) 
1.2058000000000002

>  <TPSA>  (1517) 
72.55

>  <POPULARITY>  (1517) 
3.9

>  <PROTECTED>  (1517) 
TRUE

>  <SMILES>  (1517) 
N[C@H](Cc1(cccc(OCC=C)c1))C(=O)O

>  <INCHIKEY>  (1517) 
WYLZWXCYLFVNHQ-LLVKDONJSA-N

$$$$
Phe_26diF
     RDKit          2D

 14 14  0  0  0  0  0  0  0  0999 V2000
   -1.4856    1.6416    0.0000 N   0  0  0  0  0  0  0  0  0  0  0  0
   -1.7624    0.1673    0.0000 C   0  0  0  0  0  0  0  0  0  0  0  0
   -0.6240   -0.8095    0.0000 C   0  0  0  0  0  0  0  0  0  0  0  0
    0.7911   -0.3120    0.0000 C   0  0  0  0  0  0  0  0  0  0  0  0
    1.0678    1.1622    0.0000 C   0  0  0  0  0  0  0  0  0  0  0  0
   -0.0705    2.1390    0.0000 F   0  0  0  0  0  0  0  0  0  0  0  0
    2.4830    1.6597    0.0000 C   0  0  0  0  0  0  0  0  0  0  0  0
    3.6213    0.6829    0.0000 C   0  0  0  0  0  0  0  0  0  0  0  0
    3.3446   -0.7913    0.0000 C   0  0  0  0  0  0  0  0  0  0  0  0
    1.9295   -1.2888    0.0000 C   0  0  0  0  0  0  0  0  0  0  0  0
    1.6527   -2.7631    0.0000 F   0  0  0  0  0  0  0  0  0  0  0  0
   -3.1775   -0.3302    0.0000 C   0  0  0  0  0  0  0  0  0  0  0  0
   -3.4542   -1.8044    0.0000 O   0  0  0  0  0  0  0  0  0  0  0  0
   -4.3158    0.6466    0.0000 O   0  0  0  0  0  0  0  0  0  0  0  0
  2  1  1  1
  2  3  1  0
  3  4  1  0
  4  5  2  0
  5  6  1  0
  5  7  1  0
  7  8  2  0
  8  9  1  0
  9 10  2  0
 10 11  1  0
  2 12  1  0
 12 13  2  0
 12 14  1  0
 10  4  1  0
M  END
>  <rName>  (1518) 
Phe_26diF

>  <PQ_SYMBOL>  (1518) 
Phe_26diF

>  <FULL_NAME>  (1518) 
(S)-2-amino-3-(2,6-difluorophenyl)propanoic acid

>  <IUPAC_CONDENSED>  (1518) 
Phe(2,6-diF)

>  <IUPAC>  (1518) 
(2S)-2-amino-3-(2,6-difluorophenyl)propanoic acid

>  <TYPE>  (1518) 
Backbone

>  <CLASS>  (1518) 
alpha

>  <ANALOG>  (1518) 
Phe

>  <MOL_WT>  (1518) 
201.17199999999997

>  <LOGP>  (1518) 
0.9192

>  <TPSA>  (1518) 
63.32000000000001

>  <POPULARITY>  (1518) 
7.3

>  <PROTECTED>  (1518) 
TRUE

>  <SMILES>  (1518) 
N[C@@H](Cc1(c(F)cccc1F))C(=O)O

>  <INCHIKEY>  (1518) 
RFOVYDPRGDZBLJ-QMMMGPOBSA-N

$$$$
D-Phe_23diMe
     RDKit          2D

 14 14  0  0  0  0  0  0  0  0999 V2000
   -1.9599    1.7683    0.0000 N   0  0  0  0  0  0  0  0  0  0  0  0
   -2.1168    0.2766    0.0000 C   0  0  0  0  0  0  0  0  0  0  0  0
   -0.9034   -0.6052    0.0000 C   0  0  0  0  0  0  0  0  0  0  0  0
    0.4670    0.0047    0.0000 C   0  0  0  0  0  0  0  0  0  0  0  0
    0.6239    1.4965    0.0000 C   0  0  0  0  0  0  0  0  0  0  0  0
    1.9943    2.1065    0.0000 C   0  0  0  0  0  0  0  0  0  0  0  0
    3.2078    1.2247    0.0000 C   0  0  0  0  0  0  0  0  0  0  0  0
    3.0508   -0.2671    0.0000 C   0  0  0  0  0  0  0  0  0  0  0  0
    4.2643   -1.1489    0.0000 C   0  0  0  0  0  0  0  0  0  0  0  0
    1.6804   -0.8771    0.0000 C   0  0  0  0  0  0  0  0  0  0  0  0
    1.5235   -2.3688    0.0000 C   0  0  0  0  0  0  0  0  0  0  0  0
   -3.4872   -0.3334    0.0000 C   0  0  0  0  0  0  0  0  0  0  0  0
   -3.6441   -1.8252    0.0000 O   0  0  0  0  0  0  0  0  0  0  0  0
   -4.7006    0.5484    0.0000 O   0  0  0  0  0  0  0  0  0  0  0  0
  2  1  1  6
  2  3  1  0
  3  4  1  0
  4  5  2  0
  5  6  1  0
  6  7  2  0
  7  8  1  0
  8  9  1  0
  8 10  2  0
 10 11  1  0
  2 12  1  0
 12 13  2  0
 12 14  1  0
 10  4  1  0
M  END
>  <rName>  (1519) 
D-Phe_23diMe

>  <PQ_SYMBOL>  (1519) 
D-Phe_23diMe

>  <FULL_NAME>  (1519) 
(R)-2-amino-3-(2,3-dimethylphenyl)propanoic acid

>  <IUPAC_CONDENSED>  (1519) 
D-Phe(2,3-diMe)

>  <IUPAC>  (1519) 
(2R)-2-amino-3-(2,3-dimethylphenyl)propanoic acid

>  <TYPE>  (1519) 
Backbone

>  <CLASS>  (1519) 
alpha

>  <ANALOG>  (1519) 
Phe

>  <MOL_WT>  (1519) 
193.24599999999995

>  <LOGP>  (1519) 
1.25784

>  <TPSA>  (1519) 
63.32000000000001

>  <POPULARITY>  (1519) 
4.6

>  <PROTECTED>  (1519) 
TRUE

>  <SMILES>  (1519) 
N[C@H](Cc1(cccc(C)c1C))C(=O)O

>  <INCHIKEY>  (1519) 
YOOQLMVNYYJZEI-SNVBAGLBSA-N

$$$$
Phe_23diMe
     RDKit          2D

 14 14  0  0  0  0  0  0  0  0999 V2000
   -1.9599    1.7683    0.0000 N   0  0  0  0  0  0  0  0  0  0  0  0
   -2.1168    0.2766    0.0000 C   0  0  0  0  0  0  0  0  0  0  0  0
   -0.9034   -0.6052    0.0000 C   0  0  0  0  0  0  0  0  0  0  0  0
    0.4670    0.0047    0.0000 C   0  0  0  0  0  0  0  0  0  0  0  0
    0.6239    1.4965    0.0000 C   0  0  0  0  0  0  0  0  0  0  0  0
    1.9943    2.1065    0.0000 C   0  0  0  0  0  0  0  0  0  0  0  0
    3.2078    1.2247    0.0000 C   0  0  0  0  0  0  0  0  0  0  0  0
    3.0508   -0.2671    0.0000 C   0  0  0  0  0  0  0  0  0  0  0  0
    4.2643   -1.1489    0.0000 C   0  0  0  0  0  0  0  0  0  0  0  0
    1.6804   -0.8771    0.0000 C   0  0  0  0  0  0  0  0  0  0  0  0
    1.5235   -2.3688    0.0000 C   0  0  0  0  0  0  0  0  0  0  0  0
   -3.4872   -0.3334    0.0000 C   0  0  0  0  0  0  0  0  0  0  0  0
   -3.6441   -1.8252    0.0000 O   0  0  0  0  0  0  0  0  0  0  0  0
   -4.7006    0.5484    0.0000 O   0  0  0  0  0  0  0  0  0  0  0  0
  2  1  1  1
  2  3  1  0
  3  4  1  0
  4  5  2  0
  5  6  1  0
  6  7  2  0
  7  8  1  0
  8  9  1  0
  8 10  2  0
 10 11  1  0
  2 12  1  0
 12 13  2  0
 12 14  1  0
 10  4  1  0
M  END
>  <rName>  (1520) 
Phe_23diMe

>  <PQ_SYMBOL>  (1520) 
Phe_23diMe

>  <FULL_NAME>  (1520) 
(S)-2-amino-3-(2,3-dimethylphenyl)propanoic acid

>  <IUPAC_CONDENSED>  (1520) 
Phe(2,3-diMe)

>  <IUPAC>  (1520) 
(2S)-2-amino-3-(2,3-dimethylphenyl)propanoic acid

>  <TYPE>  (1520) 
Backbone

>  <CLASS>  (1520) 
alpha

>  <ANALOG>  (1520) 
Phe

>  <MOL_WT>  (1520) 
193.24599999999995

>  <LOGP>  (1520) 
1.25784

>  <TPSA>  (1520) 
63.32000000000001

>  <POPULARITY>  (1520) 
5.2

>  <PROTECTED>  (1520) 
TRUE

>  <SMILES>  (1520) 
N[C@@H](Cc1(cccc(C)c1C))C(=O)O

>  <INCHIKEY>  (1520) 
YOOQLMVNYYJZEI-JTQLQIEISA-N

$$$$
aMeNle_allyl
     RDKit          2D

 13 12  0  0  0  0  0  0  0  0999 V2000
   -1.7290    1.8167    0.0000 N   0  0  0  0  0  0  0  0  0  0  0  0
   -2.5120    0.5373    0.0000 C   0  0  0  0  0  0  0  0  0  0  0  0
   -3.7914    1.3203    0.0000 C   0  0  0  0  0  0  0  0  0  0  0  0
   -1.2326   -0.2457    0.0000 C   0  0  0  0  0  0  0  0  0  0  0  0
    0.0852    0.4708    0.0000 C   0  0  0  0  0  0  0  0  0  0  0  0
    1.3646   -0.3122    0.0000 C   0  0  0  0  0  0  0  0  0  0  0  0
    2.6825    0.4044    0.0000 C   0  0  0  0  0  0  0  0  0  0  0  0
    3.9619   -0.3786    0.0000 C   0  0  0  0  0  0  0  0  0  0  0  0
    5.2797    0.3379    0.0000 C   0  0  0  0  0  0  0  0  0  0  0  0
    6.5591   -0.4451    0.0000 C   0  0  0  0  0  0  0  0  0  0  0  0
   -3.2950   -0.7421    0.0000 C   0  0  0  0  0  0  0  0  0  0  0  0
   -4.7945   -0.7037    0.0000 O   0  0  0  0  0  0  0  0  0  0  0  0
   -2.5785   -2.0599    0.0000 O   0  0  0  0  0  0  0  0  0  0  0  0
  1  2  1  0
  2  3  1  6
  2  4  1  0
  4  5  1  0
  5  6  1  0
  6  7  1  0
  7  8  1  0
  8  9  1  0
  9 10  2  0
  2 11  1  0
 11 12  2  0
 11 13  1  0
M  END
>  <rName>  (1521) 
aMeNle_allyl

>  <PQ_SYMBOL>  (1521) 
aMeNle_allyl

>  <FULL_NAME>  (1521) 
(S)-2-amino-2-methylnon-8-enoic acid

>  <IUPAC_CONDENSED>  (1521) 
aMeNle(allyl)

>  <IUPAC>  (1521) 
(2S)-2-amino-2-methylnon-8-enoic acid

>  <TYPE>  (1521) 
Backbone

>  <CLASS>  (1521) 
alpha

>  <ANALOG>  (1521) 
X

>  <MOL_WT>  (1521) 
185.267

>  <LOGP>  (1521) 
1.9248999999999998

>  <TPSA>  (1521) 
63.32000000000001

>  <POPULARITY>  (1521) 
7.3

>  <PROTECTED>  (1521) 
TRUE

>  <SMILES>  (1521) 
N[C@@](C)(CCCCCC=C)C(=O)O

>  <INCHIKEY>  (1521) 
DRHBBJMAJLZSRN-JTQLQIEISA-N

$$$$
Glu_Oallyl
     RDKit          2D

 13 12  0  0  0  0  0  0  0  0999 V2000
    2.7270    1.9800    0.0000 N   0  0  0  0  0  0  0  0  0  0  0  0
    2.7052    0.4801    0.0000 C   0  0  0  0  0  0  0  0  0  0  0  0
    1.3955   -0.2510    0.0000 C   0  0  0  0  0  0  0  0  0  0  0  0
    0.1074    0.5177    0.0000 C   0  0  0  0  0  0  0  0  0  0  0  0
   -1.2023   -0.2134    0.0000 C   0  0  0  0  0  0  0  0  0  0  0  0
   -1.2240   -1.7132    0.0000 O   0  0  0  0  0  0  0  0  0  0  0  0
   -2.4904    0.5553    0.0000 O   0  0  0  0  0  0  0  0  0  0  0  0
   -3.8001   -0.1758    0.0000 C   0  0  0  0  0  0  0  0  0  0  0  0
   -5.0882    0.5930    0.0000 C   0  0  0  0  0  0  0  0  0  0  0  0
   -6.3979   -0.1382    0.0000 C   0  0  0  0  0  0  0  0  0  0  0  0
    3.9933   -0.2886    0.0000 C   0  0  0  0  0  0  0  0  0  0  0  0
    3.9716   -1.7885    0.0000 O   0  0  0  0  0  0  0  0  0  0  0  0
    5.3030    0.4425    0.0000 O   0  0  0  0  0  0  0  0  0  0  0  0
  2  1  1  6
  2  3  1  0
  3  4  1  0
  4  5  1  0
  5  6  2  0
  5  7  1  0
  7  8  1  0
  8  9  1  0
  9 10  2  0
  2 11  1  0
 11 12  2  0
 11 13  1  0
M  END
>  <rName>  (1522) 
Glu_Oallyl

>  <PQ_SYMBOL>  (1522) 
Glu_Oallyl

>  <FULL_NAME>  (1522) 
(S)-5-(allyloxy)-2-amino-5-oxopentanoic acid

>  <IUPAC_CONDENSED>  (1522) 
Glu(Oallyl)

>  <IUPAC>  (1522) 
(2S)-2-amino-4-(((prop-2-en-1-yl)oxy)carbonyl)butanoic acid

>  <TYPE>  (1522) 
Backbone

>  <CLASS>  (1522) 
alpha

>  <ANALOG>  (1522) 
Glu

>  <MOL_WT>  (1522) 
187.19499999999996

>  <LOGP>  (1522) 
-0.09230000000000033

>  <TPSA>  (1522) 
89.62000000000002

>  <POPULARITY>  (1522) 
5.7

>  <PROTECTED>  (1522) 
TRUE

>  <SMILES>  (1522) 
N[C@@H](CCC(=O)OCC=C)C(=O)O

>  <INCHIKEY>  (1522) 
VTLKWXRVMXKNBW-LURJTMIESA-N

$$$$
bAla_3SMob
     RDKit          2D

 15 15  0  0  0  0  0  0  0  0999 V2000
   -1.7431    1.1840    0.0000 N   0  0  0  0  0  0  0  0  0  0  0  0
   -1.9751   -0.2980    0.0000 C   0  0  0  0  0  0  0  0  0  0  0  0
   -0.8078   -1.2399    0.0000 C   0  0  0  0  0  0  0  0  0  0  0  0
    0.5916   -0.7000    0.0000 C   0  0  0  0  0  0  0  0  0  0  0  0
    0.8237    0.7820    0.0000 C   0  0  0  0  0  0  0  0  0  0  0  0
    2.2232    1.3219    0.0000 C   0  0  0  0  0  0  0  0  0  0  0  0
    3.3905    0.3800    0.0000 C   0  0  0  0  0  0  0  0  0  0  0  0
    4.7900    0.9199    0.0000 O   0  0  0  0  0  0  0  0  0  0  0  0
    5.9573   -0.0220    0.0000 C   0  0  0  0  0  0  0  0  0  0  0  0
    3.1584   -1.1020    0.0000 C   0  0  0  0  0  0  0  0  0  0  0  0
    1.7590   -1.6419    0.0000 C   0  0  0  0  0  0  0  0  0  0  0  0
   -3.3746   -0.8379    0.0000 C   0  0  0  0  0  0  0  0  0  0  0  0
   -4.5419    0.1040    0.0000 C   0  0  0  0  0  0  0  0  0  0  0  0
   -4.3098    1.5860    0.0000 O   0  0  0  0  0  0  0  0  0  0  0  0
   -5.9414   -0.4359    0.0000 O   0  0  0  0  0  0  0  0  0  0  0  0
  2  1  1  1
  2  3  1  0
  3  4  1  0
  4  5  1  0
  5  6  2  0
  6  7  1  0
  7  8  1  0
  8  9  1  0
  7 10  2  0
 10 11  1  0
  2 12  1  0
 12 13  1  0
 13 14  2  0
 13 15  1  0
 11  4  2  0
M  END
>  <rName>  (1523) 
bAla_3SMob

>  <PQ_SYMBOL>  (1523) 
bAla_3SMob

>  <FULL_NAME>  (1523) 
(S)-3-amino-4-(4-methoxyphenyl)butanoic acid

>  <IUPAC_CONDENSED>  (1523) 
bAla(3S-Mob)

>  <IUPAC>  (1523) 
(3S)-3-amino-4-(4-methoxyphenyl)butanoic acid

>  <TYPE>  (1523) 
Backbone

>  <CLASS>  (1523) 
beta

>  <ANALOG>  (1523) 
Tyr

>  <MOL_WT>  (1523) 
209.24499999999998

>  <LOGP>  (1523) 
1.0396999999999998

>  <TPSA>  (1523) 
72.55

>  <POPULARITY>  (1523) 
6

>  <PROTECTED>  (1523) 
TRUE

>  <SMILES>  (1523) 
N[C@@H](Cc1(ccc(OC)cc1))CC(=O)O

>  <INCHIKEY>  (1523) 
GQFFGGKZIKRIFE-VIFPVBQESA-N

$$$$
Cys_SSCys
     RDKit          2D

 14 13  0  0  0  0  0  0  0  0999 V2000
   -3.2228   -1.9173    0.0000 N   0  0  0  0  0  0  0  0  0  0  0  0
   -3.2424   -0.4174    0.0000 C   0  0  0  0  0  0  0  0  0  0  0  0
   -1.9533    0.3495    0.0000 C   0  0  0  0  0  0  0  0  0  0  0  0
   -0.6446   -0.3835    0.0000 S   0  0  0  0  0  0  0  0  0  0  0  0
    0.6446    0.3835    0.0000 S   0  0  0  0  0  0  0  0  0  0  0  0
    1.9533   -0.3495    0.0000 C   0  0  0  0  0  0  0  0  0  0  0  0
    3.2424    0.4174    0.0000 C   0  0  0  0  0  0  0  0  0  0  0  0
    3.2228    1.9173    0.0000 N   0  0  0  0  0  0  0  0  0  0  0  0
    4.5511   -0.3155    0.0000 C   0  0  0  0  0  0  0  0  0  0  0  0
    4.5708   -1.8154    0.0000 O   0  0  0  0  0  0  0  0  0  0  0  0
    5.8403    0.4514    0.0000 O   0  0  0  0  0  0  0  0  0  0  0  0
   -4.5511    0.3155    0.0000 C   0  0  0  0  0  0  0  0  0  0  0  0
   -4.5708    1.8154    0.0000 O   0  0  0  0  0  0  0  0  0  0  0  0
   -5.8403   -0.4514    0.0000 O   0  0  0  0  0  0  0  0  0  0  0  0
  2  1  1  6
  2  3  1  0
  3  4  1  0
  4  5  1  0
  5  6  1  0
  6  7  1  0
  7  8  1  6
  7  9  1  0
  9 10  2  0
  9 11  1  0
  2 12  1  0
 12 13  2  0
 12 14  1  0
M  END
>  <rName>  (1524) 
Cys_SSCys

>  <PQ_SYMBOL>  (1524) 
Cys_SSCys

>  <FULL_NAME>  (1524) 
(2R,2'R)-3,3'-disulfanediylbis(2-aminopropanoic acid)

>  <IUPAC_CONDENSED>  (1524) 
Cys(S-S-Cys)

>  <IUPAC>  (1524) 
(2R)-2-amino-3-((((2R)-2-amino-3-hydroxy-3-oxopropyl)sulfanyl)sulfanyl)propanoic acid

>  <TYPE>  (1524) 
Backbone

>  <CLASS>  (1524) 
alpha

>  <ANALOG>  (1524) 
Cys

>  <MOL_WT>  (1524) 
240.306

>  <LOGP>  (1524) 
-0.8083999999999993

>  <TPSA>  (1524) 
126.64

>  <POPULARITY>  (1524) 
9

>  <PROTECTED>  (1524) 
TRUE

>  <SMILES>  (1524) 
N[C@@H](CSSC[C@H](N)C(=O)O)C(=O)O

>  <INCHIKEY>  (1524) 
LEVWYRKDKASIDU-IMJSIDKUSA-N

$$$$
Cys_Mbzl
     RDKit          2D

 15 15  0  0  0  0  0  0  0  0999 V2000
   -3.0746    1.8754    0.0000 N   0  0  0  0  0  0  0  0  0  0  0  0
   -3.3626    0.4033    0.0000 C   0  0  0  0  0  0  0  0  0  0  0  0
   -2.2318   -0.5822    0.0000 C   0  0  0  0  0  0  0  0  0  0  0  0
   -0.8129   -0.0957    0.0000 S   0  0  0  0  0  0  0  0  0  0  0  0
    0.3179   -1.0812    0.0000 C   0  0  0  0  0  0  0  0  0  0  0  0
    1.7368   -0.5946    0.0000 C   0  0  0  0  0  0  0  0  0  0  0  0
    2.0249    0.8775    0.0000 C   0  0  0  0  0  0  0  0  0  0  0  0
    3.4437    1.3640    0.0000 C   0  0  0  0  0  0  0  0  0  0  0  0
    4.5746    0.3785    0.0000 C   0  0  0  0  0  0  0  0  0  0  0  0
    5.9935    0.8651    0.0000 C   0  0  0  0  0  0  0  0  0  0  0  0
    4.2865   -1.0935    0.0000 C   0  0  0  0  0  0  0  0  0  0  0  0
    2.8676   -1.5801    0.0000 C   0  0  0  0  0  0  0  0  0  0  0  0
   -4.7815   -0.0833    0.0000 C   0  0  0  0  0  0  0  0  0  0  0  0
   -5.0696   -1.5554    0.0000 O   0  0  0  0  0  0  0  0  0  0  0  0
   -5.9124    0.9022    0.0000 O   0  0  0  0  0  0  0  0  0  0  0  0
  2  1  1  1
  2  3  1  0
  3  4  1  0
  4  5  1  0
  5  6  1  0
  6  7  1  0
  7  8  2  0
  8  9  1  0
  9 10  1  0
  9 11  2  0
 11 12  1  0
  2 13  1  0
 13 14  2  0
 13 15  1  0
 12  6  2  0
M  END
>  <rName>  (1525) 
Cys_Mbzl

>  <PQ_SYMBOL>  (1525) 
Cys_Mbzl

>  <FULL_NAME>  (1525) 
S-(4-methylbenzyl)-L-cysteine

>  <IUPAC_CONDENSED>  (1525) 
Cys(Mbzl)

>  <IUPAC>  (1525) 
(2R)-2-amino-3-(((4-methylphenyl)methyl)sulfanyl)propanoic acid

>  <TYPE>  (1525) 
Backbone

>  <CLASS>  (1525) 
alpha

>  <ANALOG>  (1525) 
Cys

>  <MOL_WT>  (1525) 
225.313

>  <LOGP>  (1525) 
1.64012

>  <TPSA>  (1525) 
63.32000000000001

>  <POPULARITY>  (1525) 
6.1

>  <PROTECTED>  (1525) 
TRUE

>  <SMILES>  (1525) 
N[C@@H](CSCc1(ccc(C)cc1))C(=O)O

>  <INCHIKEY>  (1525) 
QOAPFSZIUBUTNW-JTQLQIEISA-N

$$$$
D-Pen_Bn
     RDKit          2D

 16 16  0  0  0  0  0  0  0  0999 V2000
   -3.9488    1.7104    0.0000 N   0  0  0  0  0  0  0  0  0  0  0  0
   -3.0681    0.4962    0.0000 C   0  0  0  0  0  0  0  0  0  0  0  0
   -1.5761    0.6519    0.0000 C   0  0  0  0  0  0  0  0  0  0  0  0
   -1.7318    2.1438    0.0000 C   0  0  0  0  0  0  0  0  0  0  0  0
   -1.4205   -0.8400    0.0000 C   0  0  0  0  0  0  0  0  0  0  0  0
   -0.0842    0.8075    0.0000 S   0  0  0  0  0  0  0  0  0  0  0  0
    0.7965   -0.4067    0.0000 C   0  0  0  0  0  0  0  0  0  0  0  0
    2.2884   -0.2510    0.0000 C   0  0  0  0  0  0  0  0  0  0  0  0
    2.8996    1.1188    0.0000 C   0  0  0  0  0  0  0  0  0  0  0  0
    4.3915    1.2744    0.0000 C   0  0  0  0  0  0  0  0  0  0  0  0
    5.2722    0.0602    0.0000 C   0  0  0  0  0  0  0  0  0  0  0  0
    4.6610   -1.3096    0.0000 C   0  0  0  0  0  0  0  0  0  0  0  0
    3.1691   -1.4653    0.0000 C   0  0  0  0  0  0  0  0  0  0  0  0
   -3.6792   -0.8736    0.0000 C   0  0  0  0  0  0  0  0  0  0  0  0
   -2.7985   -2.0878    0.0000 O   0  0  0  0  0  0  0  0  0  0  0  0
   -5.1711   -1.0293    0.0000 O   0  0  0  0  0  0  0  0  0  0  0  0
  2  1  1  6
  2  3  1  0
  3  4  1  0
  3  5  1  0
  3  6  1  0
  6  7  1  0
  7  8  1  0
  8  9  2  0
  9 10  1  0
 10 11  2  0
 11 12  1  0
 12 13  2  0
  2 14  1  0
 14 15  2  0
 14 16  1  0
 13  8  1  0
M  END
>  <rName>  (1526) 
D-Pen_Bn

>  <PQ_SYMBOL>  (1526) 
D-Pen_Bn

>  <FULL_NAME>  (1526) 
(S)-2-amino-3-(benzylthio)-3-methylbutanoic acid

>  <IUPAC_CONDENSED>  (1526) 
D-Pen(Bn)

>  <IUPAC>  (1526) 
(2S)-2-amino-3-(benzylsulfanyl)-3-methylbutanoic acid

>  <TYPE>  (1526) 
Backbone

>  <CLASS>  (1526) 
alpha

>  <ANALOG>  (1526) 
Val

>  <MOL_WT>  (1526) 
239.34000000000003

>  <LOGP>  (1526) 
2.1103

>  <TPSA>  (1526) 
63.32000000000001

>  <POPULARITY>  (1526) 
4.8

>  <PROTECTED>  (1526) 
TRUE

>  <SMILES>  (1526) 
N[C@H](C(C)(C)SCc1(ccccc1))C(=O)O

>  <INCHIKEY>  (1526) 
YPZAXRYHYTVHPA-JTQLQIEISA-N

$$$$
Cys_2R3dipalmitoyloxypropyl
     RDKit          2D

 46 45  0  0  0  0  0  0  0  0999 V2000
    3.0206    3.2686    0.0000 N   0  0  0  0  0  0  0  0  0  0  0  0
    1.7278    4.0293    0.0000 C   0  0  0  0  0  0  0  0  0  0  0  0
    0.4226    3.2901    0.0000 C   0  0  0  0  0  0  0  0  0  0  0  0
    0.4102    1.7901    0.0000 S   0  0  0  0  0  0  0  0  0  0  0  0
   -0.8950    1.0509    0.0000 C   0  0  0  0  0  0  0  0  0  0  0  0
   -0.9074   -0.4490    0.0000 C   0  0  0  0  0  0  0  0  0  0  0  0
   -2.2126   -1.1882    0.0000 O   0  0  0  0  0  0  0  0  0  0  0  0
   -3.5054   -0.4275    0.0000 C   0  0  0  0  0  0  0  0  0  0  0  0
   -3.4930    1.0724    0.0000 O   0  0  0  0  0  0  0  0  0  0  0  0
   -4.8106   -1.1667    0.0000 C   0  0  0  0  0  0  0  0  0  0  0  0
   -6.1034   -0.4060    0.0000 C   0  0  0  0  0  0  0  0  0  0  0  0
   -7.4086   -1.1452    0.0000 C   0  0  0  0  0  0  0  0  0  0  0  0
   -8.7014   -0.3845    0.0000 C   0  0  0  0  0  0  0  0  0  0  0  0
  -10.0066   -1.1237    0.0000 C   0  0  0  0  0  0  0  0  0  0  0  0
  -11.2994   -0.3630    0.0000 C   0  0  0  0  0  0  0  0  0  0  0  0
  -12.6046   -1.1022    0.0000 C   0  0  0  0  0  0  0  0  0  0  0  0
  -13.8974   -0.3414    0.0000 C   0  0  0  0  0  0  0  0  0  0  0  0
  -15.2026   -1.0807    0.0000 C   0  0  0  0  0  0  0  0  0  0  0  0
  -16.4954   -0.3199    0.0000 C   0  0  0  0  0  0  0  0  0  0  0  0
  -17.8006   -1.0591    0.0000 C   0  0  0  0  0  0  0  0  0  0  0  0
  -19.0933   -0.2984    0.0000 C   0  0  0  0  0  0  0  0  0  0  0  0
  -20.3985   -1.0376    0.0000 C   0  0  0  0  0  0  0  0  0  0  0  0
  -21.6913   -0.2769    0.0000 C   0  0  0  0  0  0  0  0  0  0  0  0
  -22.9965   -1.0161    0.0000 C   0  0  0  0  0  0  0  0  0  0  0  0
    0.3854   -1.2098    0.0000 C   0  0  0  0  0  0  0  0  0  0  0  0
    1.6906   -0.4705    0.0000 O   0  0  0  0  0  0  0  0  0  0  0  0
    2.9833   -1.2313    0.0000 C   0  0  0  0  0  0  0  0  0  0  0  0
    2.9709   -2.7312    0.0000 O   0  0  0  0  0  0  0  0  0  0  0  0
    4.2885   -0.4921    0.0000 C   0  0  0  0  0  0  0  0  0  0  0  0
    5.5813   -1.2528    0.0000 C   0  0  0  0  0  0  0  0  0  0  0  0
    6.8865   -0.5136    0.0000 C   0  0  0  0  0  0  0  0  0  0  0  0
    8.1793   -1.2743    0.0000 C   0  0  0  0  0  0  0  0  0  0  0  0
    9.4845   -0.5351    0.0000 C   0  0  0  0  0  0  0  0  0  0  0  0
   10.7773   -1.2958    0.0000 C   0  0  0  0  0  0  0  0  0  0  0  0
   12.0825   -0.5566    0.0000 C   0  0  0  0  0  0  0  0  0  0  0  0
   13.3753   -1.3173    0.0000 C   0  0  0  0  0  0  0  0  0  0  0  0
   14.6805   -0.5781    0.0000 C   0  0  0  0  0  0  0  0  0  0  0  0
   15.9733   -1.3388    0.0000 C   0  0  0  0  0  0  0  0  0  0  0  0
   17.2785   -0.5996    0.0000 C   0  0  0  0  0  0  0  0  0  0  0  0
   18.5713   -1.3604    0.0000 C   0  0  0  0  0  0  0  0  0  0  0  0
   19.8765   -0.6211    0.0000 C   0  0  0  0  0  0  0  0  0  0  0  0
   21.1693   -1.3819    0.0000 C   0  0  0  0  0  0  0  0  0  0  0  0
   22.4745   -0.6427    0.0000 C   0  0  0  0  0  0  0  0  0  0  0  0
    1.7402    5.5293    0.0000 C   0  0  0  0  0  0  0  0  0  0  0  0
    0.4475    6.2900    0.0000 O   0  0  0  0  0  0  0  0  0  0  0  0
    3.0455    6.2685    0.0000 O   0  0  0  0  0  0  0  0  0  0  0  0
  2  1  1  1
  2  3  1  0
  3  4  1  0
  4  5  1  0
  6  5  1  1
  6  7  1  0
  7  8  1  0
  8  9  2  0
  8 10  1  0
 10 11  1  0
 11 12  1  0
 12 13  1  0
 13 14  1  0
 14 15  1  0
 15 16  1  0
 16 17  1  0
 17 18  1  0
 18 19  1  0
 19 20  1  0
 20 21  1  0
 21 22  1  0
 22 23  1  0
 23 24  1  0
  6 25  1  0
 25 26  1  0
 26 27  1  0
 27 28  2  0
 27 29  1  0
 29 30  1  0
 30 31  1  0
 31 32  1  0
 32 33  1  0
 33 34  1  0
 34 35  1  0
 35 36  1  0
 36 37  1  0
 37 38  1  0
 38 39  1  0
 39 40  1  0
 40 41  1  0
 41 42  1  0
 42 43  1  0
  2 44  1  0
 44 45  2  0
 44 46  1  0
M  END
>  <rName>  (1527) 
Cys_2R3dipalmitoyloxypropyl

>  <PQ_SYMBOL>  (1527) 
Cys_2R3dipalmitoyloxypropyl

>  <FULL_NAME>  (1527) 
S-((R)-2,3-bis(palmitoyloxy)propyl)-L-cysteine

>  <IUPAC_CONDENSED>  (1527) 
Cys(2R,3-dipalmitoyloxypropyl)

>  <IUPAC>  (1527) 
(2R)-2-amino-3-(((2R)-2,3-bis(pentadecylcarbonyloxy)propyl)sulfanyl)propanoic acid

>  <TYPE>  (1527) 
Backbone

>  <CLASS>  (1527) 
alpha

>  <ANALOG>  (1527) 
Cys

>  <MOL_WT>  (1527) 
672.0700000000002

>  <LOGP>  (1527) 
10.549099999999997

>  <TPSA>  (1527) 
115.92

>  <POPULARITY>  (1527) 
7

>  <PROTECTED>  (1527) 
TRUE

>  <SMILES>  (1527) 
N[C@@H](CSC[C@H](OC(=O)CCCCCCCCCCCCCCC)COC(=O)CCCCCCCCCCCCCCC)C(=O)O

>  <INCHIKEY>  (1527) 
UPAQRWMRKQCLSD-GPOMZPHUSA-N

$$$$
Cys_2S3dipalmitoyloxypropyl
     RDKit          2D

 46 45  0  0  0  0  0  0  0  0999 V2000
    3.0206    3.2686    0.0000 N   0  0  0  0  0  0  0  0  0  0  0  0
    1.7278    4.0293    0.0000 C   0  0  0  0  0  0  0  0  0  0  0  0
    0.4226    3.2901    0.0000 C   0  0  0  0  0  0  0  0  0  0  0  0
    0.4102    1.7901    0.0000 S   0  0  0  0  0  0  0  0  0  0  0  0
   -0.8950    1.0509    0.0000 C   0  0  0  0  0  0  0  0  0  0  0  0
   -0.9074   -0.4490    0.0000 C   0  0  0  0  0  0  0  0  0  0  0  0
   -2.2126   -1.1882    0.0000 O   0  0  0  0  0  0  0  0  0  0  0  0
   -3.5054   -0.4275    0.0000 C   0  0  0  0  0  0  0  0  0  0  0  0
   -3.4930    1.0724    0.0000 O   0  0  0  0  0  0  0  0  0  0  0  0
   -4.8106   -1.1667    0.0000 C   0  0  0  0  0  0  0  0  0  0  0  0
   -6.1034   -0.4060    0.0000 C   0  0  0  0  0  0  0  0  0  0  0  0
   -7.4086   -1.1452    0.0000 C   0  0  0  0  0  0  0  0  0  0  0  0
   -8.7014   -0.3845    0.0000 C   0  0  0  0  0  0  0  0  0  0  0  0
  -10.0066   -1.1237    0.0000 C   0  0  0  0  0  0  0  0  0  0  0  0
  -11.2994   -0.3630    0.0000 C   0  0  0  0  0  0  0  0  0  0  0  0
  -12.6046   -1.1022    0.0000 C   0  0  0  0  0  0  0  0  0  0  0  0
  -13.8974   -0.3414    0.0000 C   0  0  0  0  0  0  0  0  0  0  0  0
  -15.2026   -1.0807    0.0000 C   0  0  0  0  0  0  0  0  0  0  0  0
  -16.4954   -0.3199    0.0000 C   0  0  0  0  0  0  0  0  0  0  0  0
  -17.8006   -1.0591    0.0000 C   0  0  0  0  0  0  0  0  0  0  0  0
  -19.0933   -0.2984    0.0000 C   0  0  0  0  0  0  0  0  0  0  0  0
  -20.3985   -1.0376    0.0000 C   0  0  0  0  0  0  0  0  0  0  0  0
  -21.6913   -0.2769    0.0000 C   0  0  0  0  0  0  0  0  0  0  0  0
  -22.9965   -1.0161    0.0000 C   0  0  0  0  0  0  0  0  0  0  0  0
    0.3854   -1.2098    0.0000 C   0  0  0  0  0  0  0  0  0  0  0  0
    1.6906   -0.4705    0.0000 O   0  0  0  0  0  0  0  0  0  0  0  0
    2.9833   -1.2313    0.0000 C   0  0  0  0  0  0  0  0  0  0  0  0
    2.9709   -2.7312    0.0000 O   0  0  0  0  0  0  0  0  0  0  0  0
    4.2885   -0.4921    0.0000 C   0  0  0  0  0  0  0  0  0  0  0  0
    5.5813   -1.2528    0.0000 C   0  0  0  0  0  0  0  0  0  0  0  0
    6.8865   -0.5136    0.0000 C   0  0  0  0  0  0  0  0  0  0  0  0
    8.1793   -1.2743    0.0000 C   0  0  0  0  0  0  0  0  0  0  0  0
    9.4845   -0.5351    0.0000 C   0  0  0  0  0  0  0  0  0  0  0  0
   10.7773   -1.2958    0.0000 C   0  0  0  0  0  0  0  0  0  0  0  0
   12.0825   -0.5566    0.0000 C   0  0  0  0  0  0  0  0  0  0  0  0
   13.3753   -1.3173    0.0000 C   0  0  0  0  0  0  0  0  0  0  0  0
   14.6805   -0.5781    0.0000 C   0  0  0  0  0  0  0  0  0  0  0  0
   15.9733   -1.3388    0.0000 C   0  0  0  0  0  0  0  0  0  0  0  0
   17.2785   -0.5996    0.0000 C   0  0  0  0  0  0  0  0  0  0  0  0
   18.5713   -1.3604    0.0000 C   0  0  0  0  0  0  0  0  0  0  0  0
   19.8765   -0.6211    0.0000 C   0  0  0  0  0  0  0  0  0  0  0  0
   21.1693   -1.3819    0.0000 C   0  0  0  0  0  0  0  0  0  0  0  0
   22.4745   -0.6427    0.0000 C   0  0  0  0  0  0  0  0  0  0  0  0
    1.7402    5.5293    0.0000 C   0  0  0  0  0  0  0  0  0  0  0  0
    0.4475    6.2900    0.0000 O   0  0  0  0  0  0  0  0  0  0  0  0
    3.0455    6.2685    0.0000 O   0  0  0  0  0  0  0  0  0  0  0  0
  2  1  1  1
  2  3  1  0
  3  4  1  0
  4  5  1  0
  6  5  1  6
  6  7  1  0
  7  8  1  0
  8  9  2  0
  8 10  1  0
 10 11  1  0
 11 12  1  0
 12 13  1  0
 13 14  1  0
 14 15  1  0
 15 16  1  0
 16 17  1  0
 17 18  1  0
 18 19  1  0
 19 20  1  0
 20 21  1  0
 21 22  1  0
 22 23  1  0
 23 24  1  0
  6 25  1  0
 25 26  1  0
 26 27  1  0
 27 28  2  0
 27 29  1  0
 29 30  1  0
 30 31  1  0
 31 32  1  0
 32 33  1  0
 33 34  1  0
 34 35  1  0
 35 36  1  0
 36 37  1  0
 37 38  1  0
 38 39  1  0
 39 40  1  0
 40 41  1  0
 41 42  1  0
 42 43  1  0
  2 44  1  0
 44 45  2  0
 44 46  1  0
M  END
>  <rName>  (1528) 
Cys_2S3dipalmitoyloxypropyl

>  <PQ_SYMBOL>  (1528) 
Cys_2S3dipalmitoyloxypropyl

>  <FULL_NAME>  (1528) 
S-((S)-2,3-bis(palmitoyloxy)propyl)-L-cysteine

>  <IUPAC_CONDENSED>  (1528) 
Cys(2S,3-dipalmitoyloxypropyl)

>  <IUPAC>  (1528) 
(2R)-2-amino-3-(((2S)-2,3-bis(pentadecylcarbonyloxy)propyl)sulfanyl)propanoic acid

>  <TYPE>  (1528) 
Backbone

>  <CLASS>  (1528) 
alpha

>  <ANALOG>  (1528) 
Cys

>  <MOL_WT>  (1528) 
672.0700000000002

>  <LOGP>  (1528) 
10.549099999999997

>  <TPSA>  (1528) 
115.92

>  <POPULARITY>  (1528) 
5.5

>  <PROTECTED>  (1528) 
TRUE

>  <SMILES>  (1528) 
N[C@@H](CSC[C@@H](OC(=O)CCCCCCCCCCCCCCC)COC(=O)CCCCCCCCCCCCCCC)C(=O)O

>  <INCHIKEY>  (1528) 
UPAQRWMRKQCLSD-PXLJZGITSA-N

$$$$
Dap_octanoyl
     RDKit          2D

 16 15  0  0  0  0  0  0  0  0999 V2000
    1.7813   -0.4871    0.0000 N   0  0  0  0  0  0  0  0  0  0  0  0
    0.4900    0.2762    0.0000 C   0  0  0  0  0  0  0  0  0  0  0  0
    0.5054    1.7761    0.0000 O   0  0  0  0  0  0  0  0  0  0  0  0
   -0.8167   -0.4604    0.0000 C   0  0  0  0  0  0  0  0  0  0  0  0
   -2.1079    0.3029    0.0000 C   0  0  0  0  0  0  0  0  0  0  0  0
   -3.4146   -0.4337    0.0000 C   0  0  0  0  0  0  0  0  0  0  0  0
   -4.7059    0.3297    0.0000 C   0  0  0  0  0  0  0  0  0  0  0  0
   -6.0126   -0.4069    0.0000 C   0  0  0  0  0  0  0  0  0  0  0  0
   -7.3038    0.3564    0.0000 C   0  0  0  0  0  0  0  0  0  0  0  0
   -8.6105   -0.3802    0.0000 C   0  0  0  0  0  0  0  0  0  0  0  0
    3.0879    0.2495    0.0000 C   0  0  0  0  0  0  0  0  0  0  0  0
    4.3792   -0.5138    0.0000 C   0  0  0  0  0  0  0  0  0  0  0  0
    4.3638   -2.0137    0.0000 N   0  0  0  0  0  0  0  0  0  0  0  0
    5.6859    0.2228    0.0000 C   0  0  0  0  0  0  0  0  0  0  0  0
    5.7013    1.7227    0.0000 O   0  0  0  0  0  0  0  0  0  0  0  0
    6.9771   -0.5405    0.0000 O   0  0  0  0  0  0  0  0  0  0  0  0
  1  2  1  0
  2  3  2  0
  2  4  1  0
  4  5  1  0
  5  6  1  0
  6  7  1  0
  7  8  1  0
  8  9  1  0
  9 10  1  0
  1 11  1  0
 11 12  1  0
 12 13  1  1
 12 14  1  0
 14 15  2  0
 14 16  1  0
M  END
>  <rName>  (1529) 
Dap_octanoyl

>  <PQ_SYMBOL>  (1529) 
Dap_octanoyl

>  <FULL_NAME>  (1529) 
(S)-2-amino-3-octanamidopropanoic acid

>  <IUPAC_CONDENSED>  (1529) 
Dap(octanoyl)

>  <IUPAC>  (1529) 
(2S)-2-amino-3-heptylcarbonylaminopropanoic acid

>  <TYPE>  (1529) 
Backbone

>  <CLASS>  (1529) 
beta

>  <ANALOG>  (1529) 
X

>  <MOL_WT>  (1529) 
230.308

>  <LOGP>  (1529) 
0.875

>  <TPSA>  (1529) 
92.42

>  <POPULARITY>  (1529) 
7.6

>  <PROTECTED>  (1529) 
TRUE

>  <SMILES>  (1529) 
N(C(=O)CCCCCCC)C[C@H](N)C(=O)O

>  <INCHIKEY>  (1529) 
HXEZOTNYGXMRDJ-VIFPVBQESA-N

$$$$
Val-Gly
     RDKit          2D

 12 11  0  0  0  0  0  0  0  0999 V2000
    0.8979    0.2905    0.0000 N   0  0  0  0  0  0  0  0  0  0  0  0
   -0.4669   -0.3319    0.0000 C   0  0  0  0  0  0  0  0  0  0  0  0
   -0.6102   -1.8250    0.0000 O   0  0  0  0  0  0  0  0  0  0  0  0
   -1.6883    0.5388    0.0000 C   0  0  0  0  0  0  0  0  0  0  0  0
   -1.5449    2.0319    0.0000 N   0  0  0  0  0  0  0  0  0  0  0  0
   -3.0531   -0.0836    0.0000 C   0  0  0  0  0  0  0  0  0  0  0  0
   -4.2745    0.7871    0.0000 C   0  0  0  0  0  0  0  0  0  0  0  0
   -3.1964   -1.5768    0.0000 C   0  0  0  0  0  0  0  0  0  0  0  0
    2.1193   -0.5802    0.0000 C   0  0  0  0  0  0  0  0  0  0  0  0
    3.4841    0.0422    0.0000 C   0  0  0  0  0  0  0  0  0  0  0  0
    3.6274    1.5354    0.0000 O   0  0  0  0  0  0  0  0  0  0  0  0
    4.7055   -0.8285    0.0000 O   0  0  0  0  0  0  0  0  0  0  0  0
  1  2  1  0
  2  3  2  0
  2  4  1  0
  4  5  1  6
  4  6  1  0
  6  7  1  0
  6  8  1  0
  1  9  1  0
  9 10  1  0
 10 11  2  0
 10 12  1  0
M  END
>  <rName>  (1530) 
Val-Gly

>  <PQ_SYMBOL>  (1530) 
Val-Gly

>  <FULL_NAME>  (1530) 
L-valylglycine

>  <IUPAC_CONDENSED>  (1530) 
Val-Gly

>  <IUPAC>  (1530) 
2-((1S)-1-amino-2-methylpropylcarbonylamino)acetic acid

>  <TYPE>  (1530) 
Backbone

>  <CLASS>  (1530) 
alpha

>  <ANALOG>  (1530) 
Gly

>  <MOL_WT>  (1530) 
174.2

>  <LOGP>  (1530) 
-0.8295000000000003

>  <TPSA>  (1530) 
92.42

>  <POPULARITY>  (1530) 
17.3

>  <PROTECTED>  (1530) 
TRUE

>  <SMILES>  (1530) 
N(C(=O)[C@@H](N)C(C)C)CC(=O)O

>  <INCHIKEY>  (1530) 
IOUPEELXVYPCPG-LURJTMIESA-N

$$$$
His-Gly
     RDKit          2D

 15 15  0  0  0  0  0  0  0  0999 V2000
   -2.1844    0.1240    0.0000 N   0  0  0  0  0  0  0  0  0  0  0  0
   -0.9540   -0.7340    0.0000 C   0  0  0  0  0  0  0  0  0  0  0  0
   -1.0819   -2.2285    0.0000 O   0  0  0  0  0  0  0  0  0  0  0  0
    0.4042   -0.0975    0.0000 C   0  0  0  0  0  0  0  0  0  0  0  0
    0.5321    1.3971    0.0000 N   0  0  0  0  0  0  0  0  0  0  0  0
    1.6346   -0.9555    0.0000 C   0  0  0  0  0  0  0  0  0  0  0  0
    2.9929   -0.3190    0.0000 C   0  0  0  0  0  0  0  0  0  0  0  0
    4.3062   -1.0437    0.0000 C   0  0  0  0  0  0  0  0  0  0  0  0
    5.4012   -0.0186    0.0000 N   0  0  0  0  0  0  0  0  0  0  0  0
    4.7647    1.3396    0.0000 C   0  0  0  0  0  0  0  0  0  0  0  0
    3.2763    1.1540    0.0000 N   0  0  0  0  0  0  0  0  0  0  0  0
   -3.5426   -0.5125    0.0000 C   0  0  0  0  0  0  0  0  0  0  0  0
   -4.7730    0.3455    0.0000 C   0  0  0  0  0  0  0  0  0  0  0  0
   -4.6451    1.8401    0.0000 O   0  0  0  0  0  0  0  0  0  0  0  0
   -6.1312   -0.2910    0.0000 O   0  0  0  0  0  0  0  0  0  0  0  0
  1  2  1  0
  2  3  2  0
  2  4  1  0
  4  5  1  1
  4  6  1  0
  6  7  1  0
  7  8  2  0
  8  9  1  0
  9 10  1  0
 10 11  2  0
  1 12  1  0
 12 13  1  0
 13 14  2  0
 13 15  1  0
 11  7  1  0
M  END
>  <rName>  (1531) 
His-Gly

>  <PQ_SYMBOL>  (1531) 
His-Gly

>  <FULL_NAME>  (1531) 
L-histidylglycine

>  <IUPAC_CONDENSED>  (1531) 
His-Gly

>  <IUPAC>  (1531) 
2-((1S)-1-amino-2-(1H-imidazol-4-yl)ethylcarbonylamino)acetic acid

>  <TYPE>  (1531) 
Backbone

>  <CLASS>  (1531) 
alpha

>  <ANALOG>  (1531) 
Gly

>  <MOL_WT>  (1531) 
212.209

>  <LOGP>  (1531) 
-1.5196999999999998

>  <TPSA>  (1531) 
121.10000000000001

>  <POPULARITY>  (1531) 
12

>  <PROTECTED>  (1531) 
TRUE

>  <SMILES>  (1531) 
N(C(=O)[C@@H](N)Cc1(c[nH]cn1))CC(=O)O

>  <INCHIKEY>  (1531) 
LYCVKHSJGDMDLM-LURJTMIESA-N

$$$$
D-Phe_4ureido_tBu
     RDKit          2D

 20 20  0  0  0  0  0  0  0  0999 V2000
   -4.4694    1.6046    0.0000 N   0  0  0  0  0  0  0  0  0  0  0  0
   -4.7233    0.1263    0.0000 C   0  0  0  0  0  0  0  0  0  0  0  0
   -3.5700   -0.8328    0.0000 C   0  0  0  0  0  0  0  0  0  0  0  0
   -2.1627   -0.3135    0.0000 C   0  0  0  0  0  0  0  0  0  0  0  0
   -1.9088    1.1649    0.0000 C   0  0  0  0  0  0  0  0  0  0  0  0
   -0.5016    1.6842    0.0000 C   0  0  0  0  0  0  0  0  0  0  0  0
    0.6518    0.7251    0.0000 C   0  0  0  0  0  0  0  0  0  0  0  0
    0.3979   -0.7532    0.0000 C   0  0  0  0  0  0  0  0  0  0  0  0
   -1.0094   -1.2725    0.0000 C   0  0  0  0  0  0  0  0  0  0  0  0
    2.0590    1.2444    0.0000 N   0  0  0  0  0  0  0  0  0  0  0  0
    3.2123    0.2854    0.0000 C   0  0  0  0  0  0  0  0  0  0  0  0
    2.9585   -1.1930    0.0000 O   0  0  0  0  0  0  0  0  0  0  0  0
    4.6196    0.8047    0.0000 N   0  0  0  0  0  0  0  0  0  0  0  0
    5.7729   -0.1544    0.0000 C   0  0  0  0  0  0  0  0  0  0  0  0
    6.7320    0.9990    0.0000 C   0  0  0  0  0  0  0  0  0  0  0  0
    4.8139   -1.3077    0.0000 C   0  0  0  0  0  0  0  0  0  0  0  0
    6.9263   -1.1134    0.0000 C   0  0  0  0  0  0  0  0  0  0  0  0
   -6.1306   -0.3930    0.0000 C   0  0  0  0  0  0  0  0  0  0  0  0
   -6.3844   -1.8714    0.0000 O   0  0  0  0  0  0  0  0  0  0  0  0
   -7.2839    0.5660    0.0000 O   0  0  0  0  0  0  0  0  0  0  0  0
  2  1  1  6
  2  3  1  0
  3  4  1  0
  4  5  1  0
  5  6  2  0
  6  7  1  0
  7  8  2  0
  8  9  1  0
  7 10  1  0
 10 11  1  0
 11 12  2  0
 11 13  1  0
 13 14  1  0
 14 15  1  0
 14 16  1  0
 14 17  1  0
  2 18  1  0
 18 19  2  0
 18 20  1  0
  9  4  2  0
M  END
>  <rName>  (1532) 
D-Phe_4ureido_tBu

>  <PQ_SYMBOL>  (1532) 
D-Phe_4ureido_tBu

>  <FULL_NAME>  (1532) 
(R)-2-amino-3-(4-(3-(tert-butyl)ureido)phenyl)propanoic acid

>  <IUPAC_CONDENSED>  (1532) 
D-Phe(4-ureido(tBu))

>  <IUPAC>  (1532) 
(2R)-2-amino-3-(4-(((tert-butyl)carbamoyl)amino)phenyl)propanoic acid

>  <TYPE>  (1532) 
Backbone

>  <CLASS>  (1532) 
alpha

>  <ANALOG>  (1532) 
Phe

>  <MOL_WT>  (1532) 
279.34

>  <LOGP>  (1532) 
1.561

>  <TPSA>  (1532) 
104.45

>  <POPULARITY>  (1532) 
2.9

>  <PROTECTED>  (1532) 
TRUE

>  <SMILES>  (1532) 
N[C@H](Cc1(ccc(cc1)NC(=O)NC(C)(C)C))C(=O)O

>  <INCHIKEY>  (1532) 
QAUACHLRTFZNBE-LLVKDONJSA-N

$$$$
Glu-OMe
     RDKit          2D

 11 10  0  0  0  0  0  0  0  0999 V2000
    0.7523   -2.0298    0.0000 N   0  0  0  0  0  0  0  0  0  0  0  0
    0.7201   -0.5301    0.0000 C   0  0  0  0  0  0  0  0  0  0  0  0
    2.0028    0.2476    0.0000 C   0  0  0  0  0  0  0  0  0  0  0  0
    1.9706    1.7472    0.0000 O   0  0  0  0  0  0  0  0  0  0  0  0
    3.3176   -0.4744    0.0000 O   0  0  0  0  0  0  0  0  0  0  0  0
    4.6002    0.3033    0.0000 C   0  0  0  0  0  0  0  0  0  0  0  0
   -0.5947    0.1918    0.0000 C   0  0  0  0  0  0  0  0  0  0  0  0
   -1.8774   -0.5859    0.0000 C   0  0  0  0  0  0  0  0  0  0  0  0
   -3.1922    0.1361    0.0000 C   0  0  0  0  0  0  0  0  0  0  0  0
   -3.2244    1.6357    0.0000 O   0  0  0  0  0  0  0  0  0  0  0  0
   -4.4748   -0.6416    0.0000 O   0  0  0  0  0  0  0  0  0  0  0  0
  2  1  1  1
  2  3  1  0
  3  4  2  0
  3  5  1  0
  5  6  1  0
  2  7  1  0
  7  8  1  0
  8  9  1  0
  9 10  2  0
  9 11  1  0
M  END
>  <rName>  (1533) 
Glu-OMe

>  <PQ_SYMBOL>  (1533) 
Glu-OMe

>  <FULL_NAME>  (1533) 
(S)-4-amino-5-methoxy-5-oxopentanoic acid

>  <IUPAC_CONDENSED>  (1533) 
Glu-OMe

>  <IUPAC>  (1533) 
(4S)-4-amino-4-(methoxycarbonyl)butanoic acid

>  <TYPE>  (1533) 
Backbone

>  <CLASS>  (1533) 
gamma

>  <ANALOG>  (1533) 
X

>  <MOL_WT>  (1533) 
161.157

>  <LOGP>  (1533) 
-0.6484999999999999

>  <TPSA>  (1533) 
89.62000000000002

>  <POPULARITY>  (1533) 
11.4

>  <PROTECTED>  (1533) 
TRUE

>  <SMILES>  (1533) 
N[C@H](C(=O)OC)CCC(=O)O

>  <INCHIKEY>  (1533) 
SEWIYICDCVPBEW-BYPYZUCNSA-N

$$$$
Asp_Oallyl
     RDKit          2D

 12 11  0  0  0  0  0  0  0  0999 V2000
    1.9988   -1.7558    0.0000 N   0  0  0  0  0  0  0  0  0  0  0  0
    2.0493   -0.2567    0.0000 C   0  0  0  0  0  0  0  0  0  0  0  0
    0.7763    0.5367    0.0000 C   0  0  0  0  0  0  0  0  0  0  0  0
   -0.5473   -0.1692    0.0000 C   0  0  0  0  0  0  0  0  0  0  0  0
   -0.5978   -1.6683    0.0000 O   0  0  0  0  0  0  0  0  0  0  0  0
   -1.8203    0.6242    0.0000 O   0  0  0  0  0  0  0  0  0  0  0  0
   -3.1439   -0.0816    0.0000 C   0  0  0  0  0  0  0  0  0  0  0  0
   -4.4169    0.7117    0.0000 C   0  0  0  0  0  0  0  0  0  0  0  0
   -5.7405    0.0059    0.0000 C   0  0  0  0  0  0  0  0  0  0  0  0
    3.3729    0.4491    0.0000 C   0  0  0  0  0  0  0  0  0  0  0  0
    3.4234    1.9483    0.0000 O   0  0  0  0  0  0  0  0  0  0  0  0
    4.6459   -0.3442    0.0000 O   0  0  0  0  0  0  0  0  0  0  0  0
  2  1  1  1
  2  3  1  0
  3  4  1  0
  4  5  2  0
  4  6  1  0
  6  7  1  0
  7  8  1  0
  8  9  2  0
  2 10  1  0
 10 11  2  0
 10 12  1  0
M  END
>  <rName>  (1534) 
Asp_Oallyl

>  <PQ_SYMBOL>  (1534) 
Asp_Oallyl

>  <FULL_NAME>  (1534) 
(S)-4-(allyloxy)-2-amino-4-oxobutanoic acid

>  <IUPAC_CONDENSED>  (1534) 
Asp(Oallyl)

>  <IUPAC>  (1534) 
(2S)-2-amino-3-(((prop-2-en-1-yl)oxy)carbonyl)propanoic acid

>  <TYPE>  (1534) 
Backbone

>  <CLASS>  (1534) 
alpha

>  <ANALOG>  (1534) 
Asp

>  <MOL_WT>  (1534) 
173.16799999999998

>  <LOGP>  (1534) 
-0.4824000000000002

>  <TPSA>  (1534) 
89.62000000000002

>  <POPULARITY>  (1534) 
4.7

>  <PROTECTED>  (1534) 
TRUE

>  <SMILES>  (1534) 
N[C@@H](CC(=O)OCC=C)C(=O)O

>  <INCHIKEY>  (1534) 
NJVZTIBJVLBLOL-YFKPBYRVSA-N

$$$$
4-amino-cHex-1-CO2H_1r_4r
     RDKit          2D

 10 10  0  0  0  0  0  0  0  0999 V2000
    3.7500    0.0000    0.0000 N   0  0  0  0  0  0  0  0  0  0  0  0
    2.2500   -0.0000    0.0000 C   0  0  0  0  0  0  0  0  0  0  0  0
    1.5000   -1.2990    0.0000 C   0  0  0  0  0  0  0  0  0  0  0  0
   -0.0000   -1.2990    0.0000 C   0  0  0  0  0  0  0  0  0  0  0  0
   -0.7500    0.0000    0.0000 C   0  0  0  0  0  0  0  0  0  0  0  0
    0.0000    1.2990    0.0000 C   0  0  0  0  0  0  0  0  0  0  0  0
    1.5000    1.2990    0.0000 C   0  0  0  0  0  0  0  0  0  0  0  0
   -2.2500    0.0000    0.0000 C   0  0  0  0  0  0  0  0  0  0  0  0
   -3.0000   -1.2990    0.0000 O   0  0  0  0  0  0  0  0  0  0  0  0
   -3.0000    1.2990    0.0000 O   0  0  0  0  0  0  0  0  0  0  0  0
  2  1  1  1
  2  3  1  0
  3  4  1  0
  4  5  1  0
  5  6  1  0
  6  7  1  0
  5  8  1  6
  8  9  2  0
  8 10  1  0
  7  2  1  0
M  END
>  <rName>  (1535) 
4-amino-cHex-1-CO2H_1r_4r

>  <PQ_SYMBOL>  (1535) 
4-amino-cHex-1-CO2H_1r_4r

>  <FULL_NAME>  (1535) 
(1r,4r)-4-aminocyclohexane-1-carboxylic acid

>  <IUPAC_CONDENSED>  (1535) 
4-amino-cHex-1-CO2H(1r,4r)

>  <IUPAC>  (1535) 
4-aminocyclohexane-1-carboxylic acid

>  <TYPE>  (1535) 
Backbone

>  <CLASS>  (1535) 
delta

>  <ANALOG>  (1535) 
Ala

>  <MOL_WT>  (1535) 
143.186

>  <LOGP>  (1535) 
0.5884999999999998

>  <TPSA>  (1535) 
63.32000000000001

>  <POPULARITY>  (1535) 
13.4

>  <PROTECTED>  (1535) 
TRUE

>  <SMILES>  (1535) 
N[C@H]1CC[C@@H](CC1)C(=O)O

>  <INCHIKEY>  (1535) 
DRNGLYHKYPNTEA-IZLXSQMJSA-N

$$$$
bAla_3Sfur2yl
     RDKit          2D

 11 11  0  0  0  0  0  0  0  0999 V2000
   -0.7304   -1.8619    0.0000 N   0  0  0  0  0  0  0  0  0  0  0  0
   -0.2874   -0.4288    0.0000 C   0  0  0  0  0  0  0  0  0  0  0  0
    1.1751   -0.0958    0.0000 C   0  0  0  0  0  0  0  0  0  0  0  0
    2.3042   -1.0834    0.0000 C   0  0  0  0  0  0  0  0  0  0  0  0
    3.5923   -0.3148    0.0000 C   0  0  0  0  0  0  0  0  0  0  0  0
    3.2594    1.1478    0.0000 C   0  0  0  0  0  0  0  0  0  0  0  0
    1.7655    1.2831    0.0000 O   0  0  0  0  0  0  0  0  0  0  0  0
   -1.3071    0.6714    0.0000 C   0  0  0  0  0  0  0  0  0  0  0  0
   -2.7697    0.3385    0.0000 C   0  0  0  0  0  0  0  0  0  0  0  0
   -3.2126   -1.0946    0.0000 O   0  0  0  0  0  0  0  0  0  0  0  0
   -3.7893    1.4386    0.0000 O   0  0  0  0  0  0  0  0  0  0  0  0
  2  1  1  6
  2  3  1  0
  3  4  2  0
  4  5  1  0
  5  6  2  0
  6  7  1  0
  2  8  1  0
  8  9  1  0
  9 10  2  0
  9 11  1  0
  7  3  1  0
M  END
>  <rName>  (1536) 
bAla_3Sfur2yl

>  <PQ_SYMBOL>  (1536) 
bAla_3Sfur2yl

>  <FULL_NAME>  (1536) 
(R)-3-amino-3-(furan-2-yl)propanoic acid

>  <IUPAC_CONDENSED>  (1536) 
bAla(3S-fur-2-yl)

>  <IUPAC>  (1536) 
(3R)-3-amino-3-(furan-2-yl)propanoic acid

>  <TYPE>  (1536) 
Backbone

>  <CLASS>  (1536) 
beta

>  <ANALOG>  (1536) 
X

>  <MOL_WT>  (1536) 
155.153

>  <LOGP>  (1536) 
0.7541

>  <TPSA>  (1536) 
76.46

>  <POPULARITY>  (1536) 
6.4

>  <PROTECTED>  (1536) 
TRUE

>  <SMILES>  (1536) 
N[C@@H](c1(ccco1))CC(=O)O

>  <INCHIKEY>  (1536) 
YIKVKIOGYSPIMP-RXMQYKEDSA-N

$$$$
DL-Nip
     RDKit          2D

  9  9  0  0  0  0  0  0  0  0999 V2000
    1.9167   -1.2990    0.0000 N   0  0  0  0  0  0  0  0  0  0  0  0
    0.4167   -1.2990    0.0000 C   0  0  0  0  0  0  0  0  0  0  0  0
   -0.3333    0.0000    0.0000 C   0  0  0  0  0  0  0  0  0  0  0  0
    0.4167    1.2990    0.0000 C   0  0  0  0  0  0  0  0  0  0  0  0
    1.9167    1.2990    0.0000 C   0  0  0  0  0  0  0  0  0  0  0  0
    2.6667    0.0000    0.0000 C   0  0  0  0  0  0  0  0  0  0  0  0
   -1.8333    0.0000    0.0000 C   0  0  0  0  0  0  0  0  0  0  0  0
   -2.5833   -1.2990    0.0000 O   0  0  0  0  0  0  0  0  0  0  0  0
   -2.5833    1.2990    0.0000 O   0  0  0  0  0  0  0  0  0  0  0  0
  1  2  1  0
  2  3  1  0
  3  4  1  0
  4  5  1  0
  5  6  1  0
  3  7  1  0
  7  8  2  0
  7  9  1  0
  6  1  1  0
M  END
>  <rName>  (1537) 
DL-Nip

>  <PQ_SYMBOL>  (1537) 
DL-Nip

>  <FULL_NAME>  (1537) 
piperidine-3-carboxylic acid

>  <IUPAC_CONDENSED>  (1537) 
DL-Nip

>  <IUPAC>  (1537) 
piperidine-3-carboxylic acid

>  <TYPE>  (1537) 
Backbone

>  <CLASS>  (1537) 
beta

>  <ANALOG>  (1537) 
Pro

>  <MOL_WT>  (1537) 
129.15900000000002

>  <LOGP>  (1537) 
0.07059999999999994

>  <TPSA>  (1537) 
49.33

>  <POPULARITY>  (1537) 
16.9

>  <PROTECTED>  (1537) 
TRUE

>  <SMILES>  (1537) 
N1CC(CCC1)C(=O)O

>  <INCHIKEY>  (1537) 
XJLSEXAGTJCILF-UHFFFAOYSA-N

$$$$
Nva_45dehydro_E_5Ph
     RDKit          2D

 14 14  0  0  0  0  0  0  0  0999 V2000
   -2.7125    1.8435    0.0000 N   0  0  0  0  0  0  0  0  0  0  0  0
   -2.9490    0.3623    0.0000 C   0  0  0  0  0  0  0  0  0  0  0  0
   -1.7844   -0.5831    0.0000 C   0  0  0  0  0  0  0  0  0  0  0  0
   -0.3834   -0.0473    0.0000 C   0  0  0  0  0  0  0  0  0  0  0  0
    0.7812   -0.9927    0.0000 C   0  0  0  0  0  0  0  0  0  0  0  0
    2.1822   -0.4569    0.0000 C   0  0  0  0  0  0  0  0  0  0  0  0
    2.4187    1.0244    0.0000 C   0  0  0  0  0  0  0  0  0  0  0  0
    3.8197    1.5602    0.0000 C   0  0  0  0  0  0  0  0  0  0  0  0
    4.9842    0.6148    0.0000 C   0  0  0  0  0  0  0  0  0  0  0  0
    4.7478   -0.8664    0.0000 C   0  0  0  0  0  0  0  0  0  0  0  0
    3.3467   -1.4023    0.0000 C   0  0  0  0  0  0  0  0  0  0  0  0
   -4.3500   -0.1735    0.0000 C   0  0  0  0  0  0  0  0  0  0  0  0
   -4.5865   -1.6548    0.0000 O   0  0  0  0  0  0  0  0  0  0  0  0
   -5.5146    0.7719    0.0000 O   0  0  0  0  0  0  0  0  0  0  0  0
  2  1  1  1
  2  3  1  0
  3  4  1  0
  4  5  2  0
  5  6  1  0
  6  7  2  0
  7  8  1  0
  8  9  2  0
  9 10  1  0
 10 11  2  0
  2 12  1  0
 12 13  2  0
 12 14  1  0
 11  6  1  0
M  END
>  <rName>  (1538) 
Nva_45dehydro_E_5Ph

>  <PQ_SYMBOL>  (1538) 
Nva_45dehydro_E_5Ph

>  <FULL_NAME>  (1538) 
(S,E)-2-amino-5-phenylpent-4-enoic acid

>  <IUPAC_CONDENSED>  (1538) 
Nva(4,5-dehydro,E,5-Ph)

>  <IUPAC>  (1538) 
(2S,4E)-2-amino-5-phenylpent-4-enoic acid

>  <TYPE>  (1538) 
Backbone

>  <CLASS>  (1538) 
alpha

>  <ANALOG>  (1538) 
X

>  <MOL_WT>  (1538) 
191.23

>  <LOGP>  (1538) 
1.5018

>  <TPSA>  (1538) 
63.32000000000001

>  <POPULARITY>  (1538) 
3.8

>  <PROTECTED>  (1538) 
TRUE

>  <SMILES>  (1538) 
N[C@@H](C/C=C/c1ccccc1)C(=O)O

>  <INCHIKEY>  (1538) 
MCGSKGBMVBECNS-QBBOHKLWSA-N

$$$$
D-Arg_NO2
     RDKit          2D

 15 14  0  0  0  0  0  0  0  0999 V2000
    4.0072   -1.7471    0.0000 N   0  0  0  0  0  0  0  0  0  0  0  0
    3.6921   -0.2806    0.0000 C   0  0  0  0  0  0  0  0  0  0  0  0
    2.2644    0.1798    0.0000 C   0  0  0  0  0  0  0  0  0  0  0  0
    1.1520   -0.8264    0.0000 C   0  0  0  0  0  0  0  0  0  0  0  0
   -0.2757   -0.3661    0.0000 C   0  0  0  0  0  0  0  0  0  0  0  0
   -1.3881   -1.3723    0.0000 N   0  0  0  0  0  0  0  0  0  0  0  0
   -2.8157   -0.9119    0.0000 C   0  0  0  0  0  0  0  0  0  0  0  0
   -3.9282   -1.9181    0.0000 N   0  0  0  0  0  0  0  0  0  0  0  0
   -3.1309    0.5546    0.0000 N   0  0  0  0  0  0  0  0  0  0  0  0
   -4.5585    1.0150    0.0000 N   0  0  0  0  0  0  0  0  0  0  0  0
   -5.6710    0.0088    0.0000 O   0  0  0  0  0  0  0  0  0  0  0  0
   -4.8736    2.4815    0.0000 O   0  0  0  0  0  0  0  0  0  0  0  0
    4.8045    0.7256    0.0000 C   0  0  0  0  0  0  0  0  0  0  0  0
    4.4894    2.1921    0.0000 O   0  0  0  0  0  0  0  0  0  0  0  0
    6.2321    0.2652    0.0000 O   0  0  0  0  0  0  0  0  0  0  0  0
  2  1  1  6
  2  3  1  0
  3  4  1  0
  4  5  1  0
  5  6  1  0
  6  7  1  0
  7  8  2  0
  7  9  1  0
  9 10  1  0
 10 11  2  0
 10 12  1  0
  2 13  1  0
 13 14  2  0
 13 15  1  0
M  CHG  2  10   1  12  -1
M  END
>  <rName>  (1539) 
D-Arg_NO2

>  <PQ_SYMBOL>  (1539) 
D-Arg_NO2

>  <FULL_NAME>  (1539) 
Nw-nitro-D-arginine

>  <IUPAC_CONDENSED>  (1539) 
D-Arg(NO2)

>  <IUPAC>  (1539) 
(2R)-2-amino-5-(((imino)(((oxido)(oxo)ammonio)amino)methyl)amino)pentanoic acid

>  <TYPE>  (1539) 
Backbone

>  <CLASS>  (1539) 
alpha

>  <ANALOG>  (1539) 
Arg

>  <MOL_WT>  (1539) 
219.201

>  <LOGP>  (1539) 
-1.5158299999999985

>  <TPSA>  (1539) 
154.36999999999998

>  <POPULARITY>  (1539) 
4.6

>  <PROTECTED>  (1539) 
TRUE

>  <SMILES>  (1539) 
N[C@H](CCCNC(=N)N[N+](=O)[O-])C(=O)O

>  <INCHIKEY>  (1539) 
MRAUNPAHJZDYCK-SCSAIBSYSA-N

$$$$
NBn246triOMe-G
     RDKit          2D

 18 18  0  0  0  0  0  0  0  0999 V2000
   -2.2596   -0.3306    0.0000 N   0  0  0  0  0  0  0  0  0  0  0  0
   -1.0053   -1.1531    0.0000 C   0  0  0  0  0  0  0  0  0  0  0  0
    0.3342   -0.4781    0.0000 C   0  0  0  0  0  0  0  0  0  0  0  0
    0.4194    1.0195    0.0000 C   0  0  0  0  0  0  0  0  0  0  0  0
   -0.8350    1.8420    0.0000 O   0  0  0  0  0  0  0  0  0  0  0  0
   -0.7498    3.3396    0.0000 C   0  0  0  0  0  0  0  0  0  0  0  0
    1.7589    1.6945    0.0000 C   0  0  0  0  0  0  0  0  0  0  0  0
    3.0133    0.8720    0.0000 C   0  0  0  0  0  0  0  0  0  0  0  0
    4.3528    1.5470    0.0000 O   0  0  0  0  0  0  0  0  0  0  0  0
    5.6072    0.7245    0.0000 C   0  0  0  0  0  0  0  0  0  0  0  0
    2.9281   -0.6256    0.0000 C   0  0  0  0  0  0  0  0  0  0  0  0
    1.5886   -1.3006    0.0000 C   0  0  0  0  0  0  0  0  0  0  0  0
    1.5034   -2.7982    0.0000 O   0  0  0  0  0  0  0  0  0  0  0  0
    2.7578   -3.6208    0.0000 C   0  0  0  0  0  0  0  0  0  0  0  0
   -3.5992   -1.0056    0.0000 C   0  0  0  0  0  0  0  0  0  0  0  0
   -4.8535   -0.1831    0.0000 C   0  0  0  0  0  0  0  0  0  0  0  0
   -4.7684    1.3145    0.0000 O   0  0  0  0  0  0  0  0  0  0  0  0
   -6.1931   -0.8581    0.0000 O   0  0  0  0  0  0  0  0  0  0  0  0
  1  2  1  0
  2  3  1  0
  3  4  2  0
  4  5  1  0
  5  6  1  0
  4  7  1  0
  7  8  2  0
  8  9  1  0
  9 10  1  0
  8 11  1  0
 11 12  2  0
 12 13  1  0
 13 14  1  0
  1 15  1  0
 15 16  1  0
 16 17  2  0
 16 18  1  0
 12  3  1  0
M  END
>  <rName>  (1540) 
NBn246triOMe-G

>  <PQ_SYMBOL>  (1540) 
NBn246triOMe-G

>  <FULL_NAME>  (1540) 
(2,4,6-trimethoxybenzyl)glycine

>  <IUPAC_CONDENSED>  (1540) 
Bn(2,4,6-triOMe)-Gly

>  <IUPAC>  (1540) 
2-(((2,4,6-trimethoxyphenyl)methyl)amino)acetic acid

>  <TYPE>  (1540) 
Backbone

>  <CLASS>  (1540) 
alpha

>  <ANALOG>  (1540) 
Gly

>  <MOL_WT>  (1540) 
255.26999999999995

>  <LOGP>  (1540) 
0.8865999999999998

>  <TPSA>  (1540) 
77.02

>  <POPULARITY>  (1540) 
5.4

>  <PROTECTED>  (1540) 
TRUE

>  <SMILES>  (1540) 
N(Cc1(c(OC)cc(OC)cc1OC))CC(=O)O

>  <INCHIKEY>  (1540) 
IKJLUKFTUYDVAJ-UHFFFAOYSA-N

$$$$
D-Cys_MeNH2
     RDKit          2D

  9  8  0  0  0  0  0  0  0  0999 V2000
   -0.7616   -1.8791    0.0000 N   0  0  0  0  0  0  0  0  0  0  0  0
   -0.8459   -0.3815    0.0000 C   0  0  0  0  0  0  0  0  0  0  0  0
    0.4089    0.4403    0.0000 C   0  0  0  0  0  0  0  0  0  0  0  0
    1.7480   -0.2354    0.0000 S   0  0  0  0  0  0  0  0  0  0  0  0
    3.0029    0.5864    0.0000 C   0  0  0  0  0  0  0  0  0  0  0  0
    4.3420   -0.0894    0.0000 N   0  0  0  0  0  0  0  0  0  0  0  0
   -2.1851    0.2943    0.0000 C   0  0  0  0  0  0  0  0  0  0  0  0
   -2.2694    1.7919    0.0000 O   0  0  0  0  0  0  0  0  0  0  0  0
   -3.4399   -0.5275    0.0000 O   0  0  0  0  0  0  0  0  0  0  0  0
  2  1  1  1
  2  3  1  0
  3  4  1  0
  4  5  1  0
  5  6  1  0
  2  7  1  0
  7  8  2  0
  7  9  1  0
M  END
>  <rName>  (1541) 
D-Cys_MeNH2

>  <PQ_SYMBOL>  (1541) 
D-Cys_MeNH2

>  <FULL_NAME>  (1541) 
S-(aminomethyl)-D-cysteine

>  <IUPAC_CONDENSED>  (1541) 
D-Cys(MeNH2)

>  <IUPAC>  (1541) 
(2S)-2-amino-3-(aminomethylsulfanyl)propanoic acid

>  <TYPE>  (1541) 
Backbone

>  <CLASS>  (1541) 
alpha

>  <ANALOG>  (1541) 
Cys

>  <MOL_WT>  (1541) 
150.203

>  <LOGP>  (1541) 
-0.9522999999999999

>  <TPSA>  (1541) 
89.34

>  <POPULARITY>  (1541) 
5.3

>  <PROTECTED>  (1541) 
TRUE

>  <SMILES>  (1541) 
N[C@H](CSCN)C(=O)O

>  <INCHIKEY>  (1541) 
JYURMMBKQADGPI-GSVOUGTGSA-N

$$$$
aBnGaba
     RDKit          2D

 14 14  0  0  0  0  0  0  0  0999 V2000
   -0.2835    1.4730    0.0000 N   0  0  0  0  0  0  0  0  0  0  0  0
   -0.5669    0.0000    0.0000 C   0  0  0  0  0  0  0  0  0  0  0  0
    0.5669   -0.9820    0.0000 C   0  0  0  0  0  0  0  0  0  0  0  0
    1.9843   -0.4910    0.0000 C   0  0  0  0  0  0  0  0  0  0  0  0
    2.2678    0.9820    0.0000 C   0  0  0  0  0  0  0  0  0  0  0  0
    3.6852    1.4730    0.0000 C   0  0  0  0  0  0  0  0  0  0  0  0
    4.8190    0.4910    0.0000 C   0  0  0  0  0  0  0  0  0  0  0  0
    4.5356   -0.9820    0.0000 C   0  0  0  0  0  0  0  0  0  0  0  0
    3.1182   -1.4730    0.0000 C   0  0  0  0  0  0  0  0  0  0  0  0
   -1.9843   -0.4910    0.0000 C   0  0  0  0  0  0  0  0  0  0  0  0
   -3.1182    0.4910    0.0000 C   0  0  0  0  0  0  0  0  0  0  0  0
   -4.5356    0.0000    0.0000 C   0  0  0  0  0  0  0  0  0  0  0  0
   -4.8190   -1.4730    0.0000 O   0  0  0  0  0  0  0  0  0  0  0  0
   -5.6695    0.9820    0.0000 O   0  0  0  0  0  0  0  0  0  0  0  0
  2  1  1  6
  2  3  1  0
  3  4  1  0
  4  5  2  0
  5  6  1  0
  6  7  2  0
  7  8  1  0
  8  9  2  0
  2 10  1  0
 10 11  1  0
 11 12  1  0
 12 13  2  0
 12 14  1  0
  9  4  1  0
M  END
>  <rName>  (1542) 
aBnGaba

>  <PQ_SYMBOL>  (1542) 
aBnGaba

>  <FULL_NAME>  (1542) 
(S)-4-amino-5-phenylpentanoic acid

>  <IUPAC_CONDENSED>  (1542) 
aBnGaba

>  <IUPAC>  (1542) 
(4S)-4-amino-5-phenylpentanoic acid

>  <TYPE>  (1542) 
Backbone

>  <CLASS>  (1542) 
gamma

>  <ANALOG>  (1542) 
Phe

>  <MOL_WT>  (1542) 
193.24599999999992

>  <LOGP>  (1542) 
1.4212

>  <TPSA>  (1542) 
63.32000000000001

>  <POPULARITY>  (1542) 
9

>  <PROTECTED>  (1542) 
TRUE

>  <SMILES>  (1542) 
N[C@H](Cc1(ccccc1))CCC(=O)O

>  <INCHIKEY>  (1542) 
URBAOHLJWLYLQE-JTQLQIEISA-N

$$$$
D-Ala_cPr
     RDKit          2D

  9  9  0  0  0  0  0  0  0  0999 V2000
   -0.3028    1.7184    0.0000 N   0  0  0  0  0  0  0  0  0  0  0  0
   -0.6415    0.2571    0.0000 C   0  0  0  0  0  0  0  0  0  0  0  0
    0.4546   -0.7668    0.0000 C   0  0  0  0  0  0  0  0  0  0  0  0
    1.8895   -0.3295    0.0000 C   0  0  0  0  0  0  0  0  0  0  0  0
    3.3507   -0.6681    0.0000 C   0  0  0  0  0  0  0  0  0  0  0  0
    2.9134    0.7667    0.0000 C   0  0  0  0  0  0  0  0  0  0  0  0
   -2.0763   -0.1802    0.0000 C   0  0  0  0  0  0  0  0  0  0  0  0
   -2.4150   -1.6415    0.0000 O   0  0  0  0  0  0  0  0  0  0  0  0
   -3.1725    0.8437    0.0000 O   0  0  0  0  0  0  0  0  0  0  0  0
  2  1  1  6
  2  3  1  0
  3  4  1  0
  4  5  1  0
  5  6  1  0
  2  7  1  0
  7  8  2  0
  7  9  1  0
  6  4  1  0
M  END
>  <rName>  (1543) 
D-Ala_cPr

>  <PQ_SYMBOL>  (1543) 
D-Ala_cPr

>  <FULL_NAME>  (1543) 
(R)-2-amino-3-cyclopropylpropanoic acid

>  <IUPAC_CONDENSED>  (1543) 
D-Ala(cPr)

>  <IUPAC>  (1543) 
(2R)-2-amino-3-cyclopropylpropanoic acid

>  <TYPE>  (1543) 
Backbone

>  <CLASS>  (1543) 
alpha

>  <ANALOG>  (1543) 
Ala

>  <MOL_WT>  (1543) 
129.15900000000002

>  <LOGP>  (1543) 
0.19839999999999985

>  <TPSA>  (1543) 
63.32000000000001

>  <POPULARITY>  (1543) 
10.5

>  <PROTECTED>  (1543) 
TRUE

>  <SMILES>  (1543) 
N[C@H](CC1(CC1))C(=O)O

>  <INCHIKEY>  (1543) 
XGUXJMWPVJQIHI-RXMQYKEDSA-N

$$$$
bAla_3Ph_2NO2
     RDKit          2D

 15 15  0  0  0  0  0  0  0  0999 V2000
   -1.0552   -1.4821    0.0000 N   0  0  0  0  0  0  0  0  0  0  0  0
   -0.8718    0.0067    0.0000 C   0  0  0  0  0  0  0  0  0  0  0  0
    0.5093    0.5922    0.0000 C   0  0  0  0  0  0  0  0  0  0  0  0
    0.6928    2.0809    0.0000 C   0  0  0  0  0  0  0  0  0  0  0  0
    2.0738    2.6664    0.0000 C   0  0  0  0  0  0  0  0  0  0  0  0
    3.2713    1.7631    0.0000 C   0  0  0  0  0  0  0  0  0  0  0  0
    3.0878    0.2744    0.0000 C   0  0  0  0  0  0  0  0  0  0  0  0
    1.7068   -0.3111    0.0000 C   0  0  0  0  0  0  0  0  0  0  0  0
    1.5233   -1.7999    0.0000 N   0  0  0  0  0  0  0  0  0  0  0  0
    0.1423   -2.3853    0.0000 O   0  0  0  0  0  0  0  0  0  0  0  0
    2.7209   -2.7031    0.0000 O   0  0  0  0  0  0  0  0  0  0  0  0
   -2.0693    0.9100    0.0000 C   0  0  0  0  0  0  0  0  0  0  0  0
   -3.4503    0.3245    0.0000 C   0  0  0  0  0  0  0  0  0  0  0  0
   -3.6338   -1.1643    0.0000 O   0  0  0  0  0  0  0  0  0  0  0  0
   -4.6479    1.2278    0.0000 O   0  0  0  0  0  0  0  0  0  0  0  0
  1  2  1  0
  2  3  1  0
  3  4  2  0
  4  5  1  0
  5  6  2  0
  6  7  1  0
  7  8  2  0
  8  9  1  0
  9 10  2  0
  9 11  1  0
  2 12  1  0
 12 13  1  0
 13 14  2  0
 13 15  1  0
  8  3  1  0
M  CHG  2   9   1  11  -1
M  END
>  <rName>  (1544) 
bAla_3Ph_2NO2

>  <PQ_SYMBOL>  (1544) 
bAla_3Ph_2NO2

>  <FULL_NAME>  (1544) 
3-amino-3-(2-nitrophenyl)propanoic acid

>  <IUPAC_CONDENSED>  (1544) 
bAla(3-Ph(2-NO2))

>  <IUPAC>  (1544) 
3-amino-3-(2-nitrophenyl)propanoic acid

>  <TYPE>  (1544) 
Backbone

>  <CLASS>  (1544) 
beta

>  <ANALOG>  (1544) 
X

>  <MOL_WT>  (1544) 
210.18899999999996

>  <LOGP>  (1544) 
1.0693000000000001

>  <TPSA>  (1544) 
106.46

>  <POPULARITY>  (1544) 
7.7

>  <PROTECTED>  (1544) 
TRUE

>  <SMILES>  (1544) 
NC(c1(ccccc1[N+](=O)[O-]))CC(=O)O

>  <INCHIKEY>  (1544) 
XXBOYULKNZTOMN-UHFFFAOYSA-N

$$$$
bAla_3RCbz
     RDKit          2D

 32 33  0  0  0  0  0  0  0  0999 V2000
   -7.1629    1.7639    0.0000 N   0  0  0  0  0  0  0  0  0  0  0  0
   -7.4360    0.2890    0.0000 C   0  0  0  0  0  0  0  0  0  0  0  0
   -6.2953   -0.6851    0.0000 C   0  0  0  0  0  0  0  0  0  0  0  0
   -6.5685   -2.1600    0.0000 O   0  0  0  0  0  0  0  0  0  0  0  0
   -4.8814   -0.1842    0.0000 O   0  0  0  0  0  0  0  0  0  0  0  0
   -3.7407   -1.1582    0.0000 C   0  0  0  0  0  0  0  0  0  0  0  0
   -2.3268   -0.6573    0.0000 C   0  0  0  0  0  0  0  0  0  0  0  0
   -2.0536    0.8176    0.0000 C   0  0  0  0  0  0  0  0  0  0  0  0
   -0.6397    1.3185    0.0000 C   0  0  0  0  0  0  0  0  0  0  0  0
    0.5010    0.3445    0.0000 C   0  0  0  0  0  0  0  0  0  0  0  0
    1.9149    0.8454    0.0000 N   0  0  0  0  0  0  0  0  0  0  0  0
    3.0557   -0.1286    0.0000 C   0  0  0  0  0  0  0  0  0  0  0  0
    2.7825   -1.6036    0.0000 C   0  0  0  0  0  0  0  0  0  0  0  0
    3.9232   -2.5776    0.0000 C   0  0  0  0  0  0  0  0  0  0  0  0
    3.6501   -4.0525    0.0000 C   0  0  0  0  0  0  0  0  0  0  0  0
    4.9908   -2.3408    0.0000 C   0  0  0  0  0  0  0  0  0  0  0  0
    4.4696    0.3722    0.0000 C   0  0  0  0  0  0  0  0  0  0  0  0
    4.7427    1.8472    0.0000 C   0  0  0  0  0  0  0  0  0  0  0  0
    3.6020    2.8212    0.0000 O   0  0  0  0  0  0  0  0  0  0  0  0
    6.1566    2.3481    0.0000 C   0  0  0  0  0  0  0  0  0  0  0  0
    7.2974    1.3740    0.0000 C   0  0  0  0  0  0  0  0  0  0  0  0
    8.7024    0.8489    0.0000 C   0  0  0  0  0  0  0  0  0  0  0  0
    8.0585    2.6666    0.0000 C   0  0  0  0  0  0  0  0  0  0  0  0
    7.0242   -0.1009    0.0000 C   0  0  0  0  0  0  0  0  0  0  0  0
    5.6103   -0.6018    0.0000 C   0  0  0  0  0  0  0  0  0  0  0  0
    5.5437   -1.6932    0.0000 O   0  0  0  0  0  0  0  0  0  0  0  0
    0.2279   -1.1304    0.0000 C   0  0  0  0  0  0  0  0  0  0  0  0
   -1.1860   -1.6313    0.0000 C   0  0  0  0  0  0  0  0  0  0  0  0
   -8.8499   -0.2119    0.0000 C   0  0  0  0  0  0  0  0  0  0  0  0
   -9.9907    0.7621    0.0000 C   0  0  0  0  0  0  0  0  0  0  0  0
   -9.7175    2.2370    0.0000 O   0  0  0  0  0  0  0  0  0  0  0  0
  -11.4046    0.2612    0.0000 O   0  0  0  0  0  0  0  0  0  0  0  0
  2  1  1  6
  2  3  1  0
  3  4  2  0
  3  5  1  0
  5  6  1  0
  6  7  1  0
  7  8  1  0
  8  9  2  0
  9 10  1  0
 10 11  1  0
 11 12  2  0
 12 13  1  0
 13 14  1  0
 14 15  1  0
 14 16  1  0
 12 17  1  0
 17 18  2  0
 18 19  1  0
 18 20  1  0
 20 21  1  0
 21 22  1  0
 21 23  1  0
 21 24  1  0
 24 25  1  0
 25 26  2  0
 10 27  2  0
 27 28  1  0
  2 29  1  0
 29 30  1  0
 30 31  2  0
 30 32  1  0
 28  7  2  0
 25 17  1  0
M  END
>  <rName>  (1545) 
bAla_3RCbz

>  <PQ_SYMBOL>  (1545) 
bAla_3RCbz

>  <FULL_NAME>  (1545) 
(S,E)-3-amino-4-((4-((1-(2-hydroxy-4,4-dimethyl-6-oxocyclohex-1-en-1-yl)-3-methylbutylidene)amino)benzyl)oxy)-4-oxobutanoic acid

>  <IUPAC_CONDENSED>  (1545) 
bAla(3R-Cbz)

>  <IUPAC>  (1545) 
(3S)-3-amino-3-(((4-(((1E)-1-(2-hydroxy-4,4-dimethyl-6-oxocyclohex-1-en-1-yl)-3-methylbutylidene)amino)phenyl)methoxy)carbonyl)propanoic acid

>  <TYPE>  (1545) 
Backbone

>  <CLASS>  (1545) 
beta

>  <ANALOG>  (1545) 
X

>  <MOL_WT>  (1545) 
444.52800000000025

>  <LOGP>  (1545) 
3.851600000000002

>  <TPSA>  (1545) 
139.28

>  <POPULARITY>  (1545) 
2.5

>  <PROTECTED>  (1545) 
TRUE

>  <SMILES>  (1545) 
N[C@H](C(=O)OCc1ccc(/N=C(\CC(C)C)C2=C(O)CC(C)(C)CC2=O)cc1)CC(=O)O

>  <INCHIKEY>  (1545) 
HDLKFNYRIVDCAL-DXMZOVICSA-N

$$$$
D-Glu-OMe
     RDKit          2D

 11 10  0  0  0  0  0  0  0  0999 V2000
    0.7523   -2.0298    0.0000 N   0  0  0  0  0  0  0  0  0  0  0  0
    0.7201   -0.5301    0.0000 C   0  0  0  0  0  0  0  0  0  0  0  0
    2.0028    0.2476    0.0000 C   0  0  0  0  0  0  0  0  0  0  0  0
    1.9706    1.7472    0.0000 O   0  0  0  0  0  0  0  0  0  0  0  0
    3.3176   -0.4744    0.0000 O   0  0  0  0  0  0  0  0  0  0  0  0
    4.6002    0.3033    0.0000 C   0  0  0  0  0  0  0  0  0  0  0  0
   -0.5947    0.1918    0.0000 C   0  0  0  0  0  0  0  0  0  0  0  0
   -1.8774   -0.5859    0.0000 C   0  0  0  0  0  0  0  0  0  0  0  0
   -3.1922    0.1361    0.0000 C   0  0  0  0  0  0  0  0  0  0  0  0
   -3.2244    1.6357    0.0000 O   0  0  0  0  0  0  0  0  0  0  0  0
   -4.4748   -0.6416    0.0000 O   0  0  0  0  0  0  0  0  0  0  0  0
  2  1  1  6
  2  3  1  0
  3  4  2  0
  3  5  1  0
  5  6  1  0
  2  7  1  0
  7  8  1  0
  8  9  1  0
  9 10  2  0
  9 11  1  0
M  END
>  <rName>  (1546) 
D-Glu-OMe

>  <PQ_SYMBOL>  (1546) 
D-Glu-OMe

>  <FULL_NAME>  (1546) 
(R)-4-amino-5-methoxy-5-oxopentanoic acid

>  <IUPAC_CONDENSED>  (1546) 
D-Glu-OMe

>  <IUPAC>  (1546) 
(4R)-4-amino-4-(methoxycarbonyl)butanoic acid

>  <TYPE>  (1546) 
Backbone

>  <CLASS>  (1546) 
gamma

>  <ANALOG>  (1546) 
X

>  <MOL_WT>  (1546) 
161.157

>  <LOGP>  (1546) 
-0.6484999999999999

>  <TPSA>  (1546) 
89.62000000000002

>  <POPULARITY>  (1546) 
8.8

>  <PROTECTED>  (1546) 
TRUE

>  <SMILES>  (1546) 
N[C@@H](C(=O)OC)CCC(=O)O

>  <INCHIKEY>  (1546) 
SEWIYICDCVPBEW-SCSAIBSYSA-N

$$$$
D-Asp_Oallyl
     RDKit          2D

 12 11  0  0  0  0  0  0  0  0999 V2000
    1.9988   -1.7558    0.0000 N   0  0  0  0  0  0  0  0  0  0  0  0
    2.0493   -0.2567    0.0000 C   0  0  0  0  0  0  0  0  0  0  0  0
    0.7763    0.5367    0.0000 C   0  0  0  0  0  0  0  0  0  0  0  0
   -0.5473   -0.1692    0.0000 C   0  0  0  0  0  0  0  0  0  0  0  0
   -0.5978   -1.6683    0.0000 O   0  0  0  0  0  0  0  0  0  0  0  0
   -1.8203    0.6242    0.0000 O   0  0  0  0  0  0  0  0  0  0  0  0
   -3.1439   -0.0816    0.0000 C   0  0  0  0  0  0  0  0  0  0  0  0
   -4.4169    0.7117    0.0000 C   0  0  0  0  0  0  0  0  0  0  0  0
   -5.7405    0.0059    0.0000 C   0  0  0  0  0  0  0  0  0  0  0  0
    3.3729    0.4491    0.0000 C   0  0  0  0  0  0  0  0  0  0  0  0
    3.4234    1.9483    0.0000 O   0  0  0  0  0  0  0  0  0  0  0  0
    4.6459   -0.3442    0.0000 O   0  0  0  0  0  0  0  0  0  0  0  0
  2  1  1  6
  2  3  1  0
  3  4  1  0
  4  5  2  0
  4  6  1  0
  6  7  1  0
  7  8  1  0
  8  9  2  0
  2 10  1  0
 10 11  2  0
 10 12  1  0
M  END
>  <rName>  (1547) 
D-Asp_Oallyl

>  <PQ_SYMBOL>  (1547) 
D-Asp_Oallyl

>  <FULL_NAME>  (1547) 
(R)-4-(allyloxy)-2-amino-4-oxobutanoic acid

>  <IUPAC_CONDENSED>  (1547) 
D-Asp(Oallyl)

>  <IUPAC>  (1547) 
(2R)-2-amino-3-(((prop-2-en-1-yl)oxy)carbonyl)propanoic acid

>  <TYPE>  (1547) 
Backbone

>  <CLASS>  (1547) 
alpha

>  <ANALOG>  (1547) 
Asp

>  <MOL_WT>  (1547) 
173.16799999999998

>  <LOGP>  (1547) 
-0.4824000000000002

>  <TPSA>  (1547) 
89.62000000000002

>  <POPULARITY>  (1547) 
3.6

>  <PROTECTED>  (1547) 
TRUE

>  <SMILES>  (1547) 
N[C@H](CC(=O)OCC=C)C(=O)O

>  <INCHIKEY>  (1547) 
NJVZTIBJVLBLOL-RXMQYKEDSA-N

$$$$
D-Tic_7OH
     RDKit          2D

 14 15  0  0  0  0  0  0  0  0999 V2000
   -1.5721   -1.5367    0.0000 N   0  0  0  0  0  0  0  0  0  0  0  0
   -2.0048   -0.1005    0.0000 C   0  0  0  0  0  0  0  0  0  0  0  0
   -0.9774    0.9924    0.0000 C   0  0  0  0  0  0  0  0  0  0  0  0
    0.4828    0.6490    0.0000 C   0  0  0  0  0  0  0  0  0  0  0  0
    1.5103    1.7419    0.0000 C   0  0  0  0  0  0  0  0  0  0  0  0
    2.9704    1.3985    0.0000 C   0  0  0  0  0  0  0  0  0  0  0  0
    3.4032   -0.0377    0.0000 C   0  0  0  0  0  0  0  0  0  0  0  0
    4.8633   -0.3811    0.0000 O   0  0  0  0  0  0  0  0  0  0  0  0
    2.3757   -1.1306    0.0000 C   0  0  0  0  0  0  0  0  0  0  0  0
    0.9155   -0.7872    0.0000 C   0  0  0  0  0  0  0  0  0  0  0  0
   -0.1119   -1.8801    0.0000 C   0  0  0  0  0  0  0  0  0  0  0  0
   -3.4650    0.2429    0.0000 C   0  0  0  0  0  0  0  0  0  0  0  0
   -4.4924   -0.8500    0.0000 O   0  0  0  0  0  0  0  0  0  0  0  0
   -3.8977    1.6791    0.0000 O   0  0  0  0  0  0  0  0  0  0  0  0
  1  2  1  0
  2  3  1  0
  3  4  1  0
  4  5  1  0
  5  6  2  0
  6  7  1  0
  7  8  1  0
  7  9  2  0
  9 10  1  0
 10 11  1  0
  2 12  1  1
 12 13  2  0
 12 14  1  0
 10  4  2  0
 11  1  1  0
M  END
>  <rName>  (1548) 
D-Tic_7OH

>  <PQ_SYMBOL>  (1548) 
D-Tic_7OH

>  <FULL_NAME>  (1548) 
(R)-7-hydroxy-1,2,3,4-tetrahydroisoquinoline-3-carboxylic acid

>  <IUPAC_CONDENSED>  (1548) 
D-Tic(7-OH)

>  <IUPAC>  (1548) 
(4R)-9-hydroxy-3-azabicyclo[4.4.0]deca-1(10),6,8-triene-4-carboxylic acid

>  <TYPE>  (1548) 
Backbone

>  <CLASS>  (1548) 
alpha

>  <ANALOG>  (1548) 
Pro

>  <MOL_WT>  (1548) 
193.20199999999994

>  <LOGP>  (1548) 
0.49109999999999987

>  <TPSA>  (1548) 
69.56

>  <POPULARITY>  (1548) 
8.9

>  <PROTECTED>  (1548) 
TRUE

>  <SMILES>  (1548) 
N2[C@H](Cc1(ccc(O)cc1C2))C(=O)O

>  <INCHIKEY>  (1548) 
HIKCRLDSCSWXML-SECBINFHSA-N

$$$$
NMe-Orn
     RDKit          2D

 10  9  0  0  0  0  0  0  0  0999 V2000
   -2.0182    1.4385    0.0000 N   0  0  0  0  0  0  0  0  0  0  0  0
   -3.4137    0.8883    0.0000 C   0  0  0  0  0  0  0  0  0  0  0  0
   -0.8441    0.5050    0.0000 C   0  0  0  0  0  0  0  0  0  0  0  0
    0.5514    1.0552    0.0000 C   0  0  0  0  0  0  0  0  0  0  0  0
    1.7256    0.1218    0.0000 C   0  0  0  0  0  0  0  0  0  0  0  0
    3.1211    0.6719    0.0000 C   0  0  0  0  0  0  0  0  0  0  0  0
    4.2952   -0.2615    0.0000 N   0  0  0  0  0  0  0  0  0  0  0  0
   -1.0653   -0.9785    0.0000 C   0  0  0  0  0  0  0  0  0  0  0  0
   -2.4608   -1.5287    0.0000 O   0  0  0  0  0  0  0  0  0  0  0  0
    0.1088   -1.9120    0.0000 O   0  0  0  0  0  0  0  0  0  0  0  0
  1  2  1  0
  1  3  1  0
  3  4  1  1
  4  5  1  0
  5  6  1  0
  6  7  1  0
  3  8  1  0
  8  9  2  0
  8 10  1  0
M  END
>  <rName>  (1549) 
NMe-Orn

>  <PQ_SYMBOL>  (1549) 
NMe-Orn

>  <FULL_NAME>  (1549) 
(S)-5-amino-2-(methylamino)pentanoic acid

>  <IUPAC_CONDENSED>  (1549) 
Me-Orn

>  <IUPAC>  (1549) 
(2S)-5-amino-2-(methylamino)pentanoic acid

>  <TYPE>  (1549) 
Backbone

>  <CLASS>  (1549) 
alpha

>  <ANALOG>  (1549) 
Lys

>  <MOL_WT>  (1549) 
146.19000000000003

>  <LOGP>  (1549) 
-0.6020999999999996

>  <TPSA>  (1549) 
75.35

>  <POPULARITY>  (1549) 
15.5

>  <PROTECTED>  (1549) 
TRUE

>  <SMILES>  (1549) 
N(C)[C@@H](CCCN)C(=O)O

>  <INCHIKEY>  (1549) 
OZRWQPFBXDVLAH-YFKPBYRVSA-N

$$$$
Asn_EDANS
     RDKit          2D

 26 27  0  0  0  0  0  0  0  0999 V2000
   -7.4773   -1.7396    0.0000 N   0  0  0  0  0  0  0  0  0  0  0  0
   -7.4501   -0.2398    0.0000 C   0  0  0  0  0  0  0  0  0  0  0  0
   -6.1376    0.4865    0.0000 C   0  0  0  0  0  0  0  0  0  0  0  0
   -4.8524   -0.2870    0.0000 C   0  0  0  0  0  0  0  0  0  0  0  0
   -4.8796   -1.7867    0.0000 O   0  0  0  0  0  0  0  0  0  0  0  0
   -3.5400    0.4393    0.0000 N   0  0  0  0  0  0  0  0  0  0  0  0
   -2.2548   -0.3341    0.0000 C   0  0  0  0  0  0  0  0  0  0  0  0
   -0.9423    0.3922    0.0000 C   0  0  0  0  0  0  0  0  0  0  0  0
    0.3429   -0.3813    0.0000 N   0  0  0  0  0  0  0  0  0  0  0  0
    1.6553    0.3450    0.0000 C   0  0  0  0  0  0  0  0  0  0  0  0
    1.6825    1.8448    0.0000 C   0  0  0  0  0  0  0  0  0  0  0  0
    2.9950    2.5711    0.0000 C   0  0  0  0  0  0  0  0  0  0  0  0
    4.2802    1.7976    0.0000 C   0  0  0  0  0  0  0  0  0  0  0  0
    4.2530    0.2978    0.0000 C   0  0  0  0  0  0  0  0  0  0  0  0
    5.5382   -0.4756    0.0000 C   0  0  0  0  0  0  0  0  0  0  0  0
    5.5109   -1.9754    0.0000 C   0  0  0  0  0  0  0  0  0  0  0  0
    4.1985   -2.7017    0.0000 C   0  0  0  0  0  0  0  0  0  0  0  0
    2.9133   -1.9282    0.0000 C   0  0  0  0  0  0  0  0  0  0  0  0
    2.9405   -0.4284    0.0000 C   0  0  0  0  0  0  0  0  0  0  0  0
    6.8506    0.2507    0.0000 S   0  0  0  0  0  0  0  0  0  0  0  0
    7.5769   -1.0618    0.0000 O   0  0  0  0  0  0  0  0  0  0  0  0
    6.1243    1.5631    0.0000 O   0  0  0  0  0  0  0  0  0  0  0  0
    8.1630    0.9770    0.0000 O   0  0  0  0  0  0  0  0  0  0  0  0
   -8.7353    0.5337    0.0000 C   0  0  0  0  0  0  0  0  0  0  0  0
   -8.7080    2.0334    0.0000 O   0  0  0  0  0  0  0  0  0  0  0  0
  -10.0477   -0.1926    0.0000 O   0  0  0  0  0  0  0  0  0  0  0  0
  2  1  1  6
  2  3  1  0
  3  4  1  0
  4  5  2  0
  4  6  1  0
  6  7  1  0
  7  8  1  0
  8  9  1  0
  9 10  1  0
 10 11  2  0
 11 12  1  0
 12 13  2  0
 13 14  1  0
 14 15  2  0
 15 16  1  0
 16 17  2  0
 17 18  1  0
 18 19  2  0
 15 20  1  0
 20 21  2  0
 20 22  2  0
 20 23  1  0
  2 24  1  0
 24 25  2  0
 24 26  1  0
 19 14  1  0
 19 10  1  0
M  END
>  <rName>  (1550) 
Asn_EDANS

>  <PQ_SYMBOL>  (1550) 
Asn_EDANS

>  <FULL_NAME>  (1550) 
N4-(2-((5-sulfonaphthalen-1-yl)amino)ethyl)-L-asparagine

>  <IUPAC_CONDENSED>  (1550) 
Asn(EDANS)

>  <IUPAC>  (1550) 
(2S)-2-amino-3-((2-((5-sulfonaphthalen-1-yl)amino)ethyl)carbamoyl)propanoic acid

>  <TYPE>  (1550) 
Backbone

>  <CLASS>  (1550) 
alpha

>  <ANALOG>  (1550) 
Asn

>  <MOL_WT>  (1550) 
381.41000000000014

>  <LOGP>  (1550) 
0.41659999999999975

>  <TPSA>  (1550) 
158.82

>  <POPULARITY>  (1550) 
3.9

>  <PROTECTED>  (1550) 
TRUE

>  <SMILES>  (1550) 
N[C@@H](CC(=O)NCCNc2(cccc1(c(cccc12)S(=O)(=O)O)))C(=O)O

>  <INCHIKEY>  (1550) 
IQLIDZWGEYIYPJ-LBPRGKRZSA-N

$$$$
H2NEt-bAla_3Me
     RDKit          2D

 10 10  0  0  0  0  0  0  0  0999 V2000
    1.3040   -1.4730    0.0000 N   0  0  0  0  0  0  0  0  0  0  0  0
    0.1701   -0.4910    0.0000 C   0  0  0  0  0  0  0  0  0  0  0  0
    0.4536    0.9820    0.0000 C   0  0  0  0  0  0  0  0  0  0  0  0
    1.8709    1.4730    0.0000 N   0  0  0  0  0  0  0  0  0  0  0  0
    3.0048    0.4910    0.0000 C   0  0  0  0  0  0  0  0  0  0  0  0
    2.7213   -0.9820    0.0000 C   0  0  0  0  0  0  0  0  0  0  0  0
   -1.2473   -0.9820    0.0000 C   0  0  0  0  0  0  0  0  0  0  0  0
   -2.3812   -0.0000    0.0000 C   0  0  0  0  0  0  0  0  0  0  0  0
   -2.0977    1.4730    0.0000 O   0  0  0  0  0  0  0  0  0  0  0  0
   -3.7985   -0.4910    0.0000 O   0  0  0  0  0  0  0  0  0  0  0  0
  1  2  1  0
  2  3  1  0
  3  4  1  0
  4  5  1  0
  5  6  1  0
  2  7  1  0
  7  8  1  0
  8  9  2  0
  8 10  1  0
  6  1  1  0
M  END
>  <rName>  (1551) 
H2NEt-bAla_3Me

>  <PQ_SYMBOL>  (1551) 
H2NEt-bAla_3Me

>  <FULL_NAME>  (1551) 
2-(piperazin-2-yl)acetic acid

>  <IUPAC_CONDENSED>  (1551) 
H2NEt-bAla(3-Me)

>  <IUPAC>  (1551) 
2-(piperazin-2-yl)acetic acid

>  <TYPE>  (1551) 
Backbone

>  <CLASS>  (1551) 
beta

>  <ANALOG>  (1551) 
Pro

>  <MOL_WT>  (1551) 
144.174

>  <LOGP>  (1551) 
-0.9774999999999996

>  <TPSA>  (1551) 
61.36

>  <POPULARITY>  (1551) 
10.7

>  <PROTECTED>  (1551) 
TRUE

>  <SMILES>  (1551) 
N1C(CNCC1)CC(=O)O

>  <INCHIKEY>  (1551) 
VGEOCVZKPBSYQC-UHFFFAOYSA-N

$$$$
Glu_EDANS
     RDKit          2D

 27 28  0  0  0  0  0  0  0  0999 V2000
   -8.1968    1.9909    0.0000 N   0  0  0  0  0  0  0  0  0  0  0  0
   -8.2205    0.4911    0.0000 C   0  0  0  0  0  0  0  0  0  0  0  0
   -6.9335   -0.2793    0.0000 C   0  0  0  0  0  0  0  0  0  0  0  0
   -5.6228    0.4501    0.0000 C   0  0  0  0  0  0  0  0  0  0  0  0
   -4.3357   -0.3204    0.0000 C   0  0  0  0  0  0  0  0  0  0  0  0
   -4.3594   -1.8202    0.0000 O   0  0  0  0  0  0  0  0  0  0  0  0
   -3.0250    0.4090    0.0000 N   0  0  0  0  0  0  0  0  0  0  0  0
   -1.7380   -0.3615    0.0000 C   0  0  0  0  0  0  0  0  0  0  0  0
   -0.4272    0.3679    0.0000 C   0  0  0  0  0  0  0  0  0  0  0  0
    0.8598   -0.4025    0.0000 N   0  0  0  0  0  0  0  0  0  0  0  0
    2.1705    0.3268    0.0000 C   0  0  0  0  0  0  0  0  0  0  0  0
    2.1942    1.8267    0.0000 C   0  0  0  0  0  0  0  0  0  0  0  0
    3.5049    2.5560    0.0000 C   0  0  0  0  0  0  0  0  0  0  0  0
    4.7920    1.7856    0.0000 C   0  0  0  0  0  0  0  0  0  0  0  0
    4.7683    0.2858    0.0000 C   0  0  0  0  0  0  0  0  0  0  0  0
    6.0553   -0.4847    0.0000 C   0  0  0  0  0  0  0  0  0  0  0  0
    6.0316   -1.9845    0.0000 C   0  0  0  0  0  0  0  0  0  0  0  0
    4.7208   -2.7139    0.0000 C   0  0  0  0  0  0  0  0  0  0  0  0
    3.4338   -1.9434    0.0000 C   0  0  0  0  0  0  0  0  0  0  0  0
    3.4575   -0.4436    0.0000 C   0  0  0  0  0  0  0  0  0  0  0  0
    7.3660    0.2447    0.0000 S   0  0  0  0  0  0  0  0  0  0  0  0
    8.0954   -1.0660    0.0000 O   0  0  0  0  0  0  0  0  0  0  0  0
    6.6366    1.5554    0.0000 O   0  0  0  0  0  0  0  0  0  0  0  0
    8.6767    0.9741    0.0000 O   0  0  0  0  0  0  0  0  0  0  0  0
   -9.5312   -0.2382    0.0000 C   0  0  0  0  0  0  0  0  0  0  0  0
   -9.5550   -1.7380    0.0000 O   0  0  0  0  0  0  0  0  0  0  0  0
  -10.8183    0.5322    0.0000 O   0  0  0  0  0  0  0  0  0  0  0  0
  2  1  1  1
  2  3  1  0
  3  4  1  0
  4  5  1  0
  5  6  2  0
  5  7  1  0
  7  8  1  0
  8  9  1  0
  9 10  1  0
 10 11  1  0
 11 12  2  0
 12 13  1  0
 13 14  2  0
 14 15  1  0
 15 16  2  0
 16 17  1  0
 17 18  2  0
 18 19  1  0
 19 20  2  0
 16 21  1  0
 21 22  2  0
 21 23  2  0
 21 24  1  0
  2 25  1  0
 25 26  2  0
 25 27  1  0
 20 15  1  0
 20 11  1  0
M  END
>  <rName>  (1552) 
Glu_EDANS

>  <PQ_SYMBOL>  (1552) 
Glu_EDANS

>  <FULL_NAME>  (1552) 
N5-(2-((5-sulfonaphthalen-1-yl)amino)ethyl)-L-glutamine

>  <IUPAC_CONDENSED>  (1552) 
Glu(EDANS)

>  <IUPAC>  (1552) 
(2S)-2-amino-4-((2-((5-sulfonaphthalen-1-yl)amino)ethyl)carbamoyl)butanoic acid

>  <TYPE>  (1552) 
Backbone

>  <CLASS>  (1552) 
alpha

>  <ANALOG>  (1552) 
Gln

>  <MOL_WT>  (1552) 
395.4370000000001

>  <LOGP>  (1552) 
0.8067

>  <TPSA>  (1552) 
158.82

>  <POPULARITY>  (1552) 
4.2

>  <PROTECTED>  (1552) 
TRUE

>  <SMILES>  (1552) 
N[C@@H](CCC(=O)NCCNc2(cccc1(c(cccc12)S(=O)(=O)O)))C(=O)O

>  <INCHIKEY>  (1552) 
OMZFNWJGXBGMIA-ZDUSSCGKSA-N

$$$$
D-hPro
     RDKit          2D

  9  9  0  0  0  0  0  0  0  0999 V2000
   -0.8806   -1.0024    0.0000 N   0  0  0  0  0  0  0  0  0  0  0  0
   -0.4728    0.4411    0.0000 C   0  0  0  0  0  0  0  0  0  0  0  0
   -1.7196    1.2750    0.0000 C   0  0  0  0  0  0  0  0  0  0  0  0
   -2.8980    0.3469    0.0000 C   0  0  0  0  0  0  0  0  0  0  0  0
   -2.3794   -1.0606    0.0000 C   0  0  0  0  0  0  0  0  0  0  0  0
    0.9347    0.9597    0.0000 C   0  0  0  0  0  0  0  0  0  0  0  0
    2.0876   -0.0000    0.0000 C   0  0  0  0  0  0  0  0  0  0  0  0
    1.8329   -1.4782    0.0000 O   0  0  0  0  0  0  0  0  0  0  0  0
    3.4951    0.5186    0.0000 O   0  0  0  0  0  0  0  0  0  0  0  0
  1  2  1  0
  2  3  1  0
  3  4  1  0
  4  5  1  0
  2  6  1  6
  6  7  1  0
  7  8  2  0
  7  9  1  0
  5  1  1  0
M  END
>  <rName>  (1553) 
D-hPro

>  <PQ_SYMBOL>  (1553) 
D-hPro

>  <FULL_NAME>  (1553) 
(R)-2-(pyrrolidin-2-yl)acetic acid

>  <IUPAC_CONDENSED>  (1553) 
D-hPro

>  <IUPAC>  (1553) 
2-((2R)-pyrrolidin-2-yl)acetic acid

>  <TYPE>  (1553) 
Backbone

>  <CLASS>  (1553) 
beta

>  <ANALOG>  (1553) 
Pro

>  <MOL_WT>  (1553) 
129.15900000000002

>  <LOGP>  (1553) 
0.2131

>  <TPSA>  (1553) 
49.33

>  <POPULARITY>  (1553) 
13.2

>  <PROTECTED>  (1553) 
TRUE

>  <SMILES>  (1553) 
N1[C@H](CCC1)CC(=O)O

>  <INCHIKEY>  (1553) 
ADSALMJPJUKESW-RXMQYKEDSA-N

$$$$
azetidine-3-CO2H
     RDKit          2D

  7  7  0  0  0  0  0  0  0  0999 V2000
    2.3724   -0.0000    0.0000 N   0  0  0  0  0  0  0  0  0  0  0  0
    1.3117   -1.0607    0.0000 C   0  0  0  0  0  0  0  0  0  0  0  0
    0.2511   -0.0000    0.0000 C   0  0  0  0  0  0  0  0  0  0  0  0
    1.3117    1.0607    0.0000 C   0  0  0  0  0  0  0  0  0  0  0  0
   -1.2489    0.0000    0.0000 C   0  0  0  0  0  0  0  0  0  0  0  0
   -1.9989   -1.2990    0.0000 O   0  0  0  0  0  0  0  0  0  0  0  0
   -1.9989    1.2990    0.0000 O   0  0  0  0  0  0  0  0  0  0  0  0
  1  2  1  0
  2  3  1  0
  3  4  1  0
  3  5  1  0
  5  6  2  0
  5  7  1  0
  4  1  1  0
M  END
>  <rName>  (1554) 
azetidine-3-CO2H

>  <PQ_SYMBOL>  (1554) 
azetidine-3-CO2H

>  <FULL_NAME>  (1554) 
azetidine-3-carboxylic acid

>  <IUPAC_CONDENSED>  (1554) 
azetidine-3-CO2H

>  <IUPAC>  (1554) 
azetidine-3-carboxylic acid

>  <TYPE>  (1554) 
Backbone

>  <CLASS>  (1554) 
beta

>  <ANALOG>  (1554) 
Ala

>  <MOL_WT>  (1554) 
101.10499999999999

>  <LOGP>  (1554) 
-0.7096000000000002

>  <TPSA>  (1554) 
49.33

>  <POPULARITY>  (1554) 
12.4

>  <PROTECTED>  (1554) 
TRUE

>  <SMILES>  (1554) 
N1CC(C1)C(=O)O

>  <INCHIKEY>  (1554) 
GFZWHAAOIVMHOI-UHFFFAOYSA-N

$$$$
Phe_4ureido_tBu
     RDKit          2D

 20 20  0  0  0  0  0  0  0  0999 V2000
   -4.4694    1.6046    0.0000 N   0  0  0  0  0  0  0  0  0  0  0  0
   -4.7233    0.1263    0.0000 C   0  0  0  0  0  0  0  0  0  0  0  0
   -3.5700   -0.8328    0.0000 C   0  0  0  0  0  0  0  0  0  0  0  0
   -2.1627   -0.3135    0.0000 C   0  0  0  0  0  0  0  0  0  0  0  0
   -1.9088    1.1649    0.0000 C   0  0  0  0  0  0  0  0  0  0  0  0
   -0.5016    1.6842    0.0000 C   0  0  0  0  0  0  0  0  0  0  0  0
    0.6518    0.7251    0.0000 C   0  0  0  0  0  0  0  0  0  0  0  0
    0.3979   -0.7532    0.0000 C   0  0  0  0  0  0  0  0  0  0  0  0
   -1.0094   -1.2725    0.0000 C   0  0  0  0  0  0  0  0  0  0  0  0
    2.0590    1.2444    0.0000 N   0  0  0  0  0  0  0  0  0  0  0  0
    3.2123    0.2854    0.0000 C   0  0  0  0  0  0  0  0  0  0  0  0
    2.9585   -1.1930    0.0000 O   0  0  0  0  0  0  0  0  0  0  0  0
    4.6196    0.8047    0.0000 N   0  0  0  0  0  0  0  0  0  0  0  0
    5.7729   -0.1544    0.0000 C   0  0  0  0  0  0  0  0  0  0  0  0
    6.7320    0.9990    0.0000 C   0  0  0  0  0  0  0  0  0  0  0  0
    4.8139   -1.3077    0.0000 C   0  0  0  0  0  0  0  0  0  0  0  0
    6.9263   -1.1134    0.0000 C   0  0  0  0  0  0  0  0  0  0  0  0
   -6.1306   -0.3930    0.0000 C   0  0  0  0  0  0  0  0  0  0  0  0
   -6.3844   -1.8714    0.0000 O   0  0  0  0  0  0  0  0  0  0  0  0
   -7.2839    0.5660    0.0000 O   0  0  0  0  0  0  0  0  0  0  0  0
  2  1  1  1
  2  3  1  0
  3  4  1  0
  4  5  1  0
  5  6  2  0
  6  7  1  0
  7  8  2  0
  8  9  1  0
  7 10  1  0
 10 11  1  0
 11 12  2  0
 11 13  1  0
 13 14  1  0
 14 15  1  0
 14 16  1  0
 14 17  1  0
  2 18  1  0
 18 19  2  0
 18 20  1  0
  9  4  2  0
M  END
>  <rName>  (1555) 
Phe_4ureido_tBu

>  <PQ_SYMBOL>  (1555) 
Phe_4ureido_tBu

>  <FULL_NAME>  (1555) 
(S)-2-amino-3-(4-(3-(tert-butyl)ureido)phenyl)propanoic acid

>  <IUPAC_CONDENSED>  (1555) 
Phe(4-ureido(tBu))

>  <IUPAC>  (1555) 
(2S)-2-amino-3-(4-(((tert-butyl)carbamoyl)amino)phenyl)propanoic acid

>  <TYPE>  (1555) 
Backbone

>  <CLASS>  (1555) 
alpha

>  <ANALOG>  (1555) 
Phe

>  <MOL_WT>  (1555) 
279.34

>  <LOGP>  (1555) 
1.561

>  <TPSA>  (1555) 
104.45

>  <POPULARITY>  (1555) 
2.9

>  <PROTECTED>  (1555) 
TRUE

>  <SMILES>  (1555) 
N[C@@H](Cc1(ccc(cc1)NC(=O)NC(C)(C)C))C(=O)O

>  <INCHIKEY>  (1555) 
QAUACHLRTFZNBE-NSHDSACASA-N

$$$$
Phe_2F_5Cl
     RDKit          2D

 14 14  0  0  0  0  0  0  0  0999 V2000
   -1.4552    1.7882    0.0000 N   0  0  0  0  0  0  0  0  0  0  0  0
   -1.9325    0.3661    0.0000 C   0  0  0  0  0  0  0  0  0  0  0  0
   -0.9397   -0.7583    0.0000 C   0  0  0  0  0  0  0  0  0  0  0  0
    0.5305   -0.4606    0.0000 C   0  0  0  0  0  0  0  0  0  0  0  0
    1.0078    0.9614    0.0000 C   0  0  0  0  0  0  0  0  0  0  0  0
    2.4780    1.2591    0.0000 C   0  0  0  0  0  0  0  0  0  0  0  0
    2.9553    2.6811    0.0000 Cl  0  0  0  0  0  0  0  0  0  0  0  0
    3.4709    0.1347    0.0000 C   0  0  0  0  0  0  0  0  0  0  0  0
    2.9935   -1.2874    0.0000 C   0  0  0  0  0  0  0  0  0  0  0  0
    1.5234   -1.5850    0.0000 C   0  0  0  0  0  0  0  0  0  0  0  0
    1.0461   -3.0070    0.0000 F   0  0  0  0  0  0  0  0  0  0  0  0
   -3.4027    0.0685    0.0000 C   0  0  0  0  0  0  0  0  0  0  0  0
   -3.8800   -1.3536    0.0000 O   0  0  0  0  0  0  0  0  0  0  0  0
   -4.3955    1.1929    0.0000 O   0  0  0  0  0  0  0  0  0  0  0  0
  2  1  1  1
  2  3  1  0
  3  4  1  0
  4  5  1  0
  5  6  2  0
  6  7  1  0
  6  8  1  0
  8  9  2  0
  9 10  1  0
 10 11  1  0
  2 12  1  0
 12 13  2  0
 12 14  1  0
 10  4  2  0
M  END
>  <rName>  (1556) 
Phe_2F_5Cl

>  <PQ_SYMBOL>  (1556) 
Phe_2F_5Cl

>  <FULL_NAME>  (1556) 
(S)-2-amino-3-(5-chloro-2-fluorophenyl)propanoic acid

>  <IUPAC_CONDENSED>  (1556) 
Phe(2-F,5-Cl)

>  <IUPAC>  (1556) 
(2S)-2-amino-3-(5-chloro-2-fluorophenyl)propanoic acid

>  <TYPE>  (1556) 
Backbone

>  <CLASS>  (1556) 
alpha

>  <ANALOG>  (1556) 
Phe

>  <MOL_WT>  (1556) 
217.62699999999998

>  <LOGP>  (1556) 
1.4335

>  <TPSA>  (1556) 
63.32000000000001

>  <POPULARITY>  (1556) 
3.4

>  <PROTECTED>  (1556) 
TRUE

>  <SMILES>  (1556) 
N[C@@H](Cc1(cc(Cl)ccc1F))C(=O)O

>  <INCHIKEY>  (1556) 
FXDFUITYRFFOBD-QMMMGPOBSA-N

$$$$
D-Cys_Mbzl
     RDKit          2D

 15 15  0  0  0  0  0  0  0  0999 V2000
   -3.0746    1.8754    0.0000 N   0  0  0  0  0  0  0  0  0  0  0  0
   -3.3626    0.4033    0.0000 C   0  0  0  0  0  0  0  0  0  0  0  0
   -2.2318   -0.5822    0.0000 C   0  0  0  0  0  0  0  0  0  0  0  0
   -0.8129   -0.0957    0.0000 S   0  0  0  0  0  0  0  0  0  0  0  0
    0.3179   -1.0812    0.0000 C   0  0  0  0  0  0  0  0  0  0  0  0
    1.7368   -0.5946    0.0000 C   0  0  0  0  0  0  0  0  0  0  0  0
    2.0249    0.8775    0.0000 C   0  0  0  0  0  0  0  0  0  0  0  0
    3.4437    1.3640    0.0000 C   0  0  0  0  0  0  0  0  0  0  0  0
    4.5746    0.3785    0.0000 C   0  0  0  0  0  0  0  0  0  0  0  0
    5.9935    0.8651    0.0000 C   0  0  0  0  0  0  0  0  0  0  0  0
    4.2865   -1.0935    0.0000 C   0  0  0  0  0  0  0  0  0  0  0  0
    2.8676   -1.5801    0.0000 C   0  0  0  0  0  0  0  0  0  0  0  0
   -4.7815   -0.0833    0.0000 C   0  0  0  0  0  0  0  0  0  0  0  0
   -5.0696   -1.5554    0.0000 O   0  0  0  0  0  0  0  0  0  0  0  0
   -5.9124    0.9022    0.0000 O   0  0  0  0  0  0  0  0  0  0  0  0
  2  1  1  6
  2  3  1  0
  3  4  1  0
  4  5  1  0
  5  6  1  0
  6  7  1  0
  7  8  2  0
  8  9  1  0
  9 10  1  0
  9 11  2  0
 11 12  1  0
  2 13  1  0
 13 14  2  0
 13 15  1  0
 12  6  2  0
M  END
>  <rName>  (1557) 
D-Cys_Mbzl

>  <PQ_SYMBOL>  (1557) 
D-Cys_Mbzl

>  <FULL_NAME>  (1557) 
S-(4-methylbenzyl)-D-cysteine

>  <IUPAC_CONDENSED>  (1557) 
D-Cys(Mbzl)

>  <IUPAC>  (1557) 
(2S)-2-amino-3-(((4-methylphenyl)methyl)sulfanyl)propanoic acid

>  <TYPE>  (1557) 
Backbone

>  <CLASS>  (1557) 
alpha

>  <ANALOG>  (1557) 
Cys

>  <MOL_WT>  (1557) 
225.313

>  <LOGP>  (1557) 
1.64012

>  <TPSA>  (1557) 
63.32000000000001

>  <POPULARITY>  (1557) 
5.5

>  <PROTECTED>  (1557) 
TRUE

>  <SMILES>  (1557) 
N[C@H](CSCc1(ccc(C)cc1))C(=O)O

>  <INCHIKEY>  (1557) 
QOAPFSZIUBUTNW-SNVBAGLBSA-N

$$$$
Lys_palmitoyl
     RDKit          2D

 27 26  0  0  0  0  0  0  0  0999 V2000
  -16.0714   -0.3744    0.0000 C   0  0  0  0  0  0  0  0  0  0  0  0
  -14.7691    0.3699    0.0000 C   0  0  0  0  0  0  0  0  0  0  0  0
  -13.4733   -0.3857    0.0000 C   0  0  0  0  0  0  0  0  0  0  0  0
  -12.1710    0.3586    0.0000 C   0  0  0  0  0  0  0  0  0  0  0  0
  -10.8753   -0.3970    0.0000 C   0  0  0  0  0  0  0  0  0  0  0  0
   -9.5730    0.3473    0.0000 C   0  0  0  0  0  0  0  0  0  0  0  0
   -8.2772   -0.4084    0.0000 C   0  0  0  0  0  0  0  0  0  0  0  0
   -6.9749    0.3360    0.0000 C   0  0  0  0  0  0  0  0  0  0  0  0
   -5.6792   -0.4197    0.0000 C   0  0  0  0  0  0  0  0  0  0  0  0
   -4.3769    0.3246    0.0000 C   0  0  0  0  0  0  0  0  0  0  0  0
   -3.0811   -0.4310    0.0000 C   0  0  0  0  0  0  0  0  0  0  0  0
   -1.7788    0.3133    0.0000 C   0  0  0  0  0  0  0  0  0  0  0  0
   -0.4831   -0.4423    0.0000 C   0  0  0  0  0  0  0  0  0  0  0  0
    0.8192    0.3020    0.0000 C   0  0  0  0  0  0  0  0  0  0  0  0
    2.1150   -0.4537    0.0000 C   0  0  0  0  0  0  0  0  0  0  0  0
    3.4173    0.2907    0.0000 C   0  0  0  0  0  0  0  0  0  0  0  0
    3.4238    1.7906    0.0000 O   0  0  0  0  0  0  0  0  0  0  0  0
    4.7130   -0.4650    0.0000 N   0  0  0  0  0  0  0  0  0  0  0  0
    6.0153    0.2793    0.0000 C   0  0  0  0  0  0  0  0  0  0  0  0
    7.3111   -0.4763    0.0000 C   0  0  0  0  0  0  0  0  0  0  0  0
    8.6134    0.2680    0.0000 C   0  0  0  0  0  0  0  0  0  0  0  0
    9.9091   -0.4876    0.0000 C   0  0  0  0  0  0  0  0  0  0  0  0
   11.2114    0.2567    0.0000 C   0  0  0  0  0  0  0  0  0  0  0  0
   11.2180    1.7567    0.0000 N   0  0  0  0  0  0  0  0  0  0  0  0
   12.5072   -0.4990    0.0000 C   0  0  0  0  0  0  0  0  0  0  0  0
   12.5007   -1.9990    0.0000 O   0  0  0  0  0  0  0  0  0  0  0  0
   13.8095    0.2454    0.0000 O   0  0  0  0  0  0  0  0  0  0  0  0
  1  2  1  0
  2  3  1  0
  3  4  1  0
  4  5  1  0
  5  6  1  0
  6  7  1  0
  7  8  1  0
  8  9  1  0
  9 10  1  0
 10 11  1  0
 11 12  1  0
 12 13  1  0
 13 14  1  0
 14 15  1  0
 15 16  1  0
 16 17  2  0
 16 18  1  0
 18 19  1  0
 19 20  1  0
 20 21  1  0
 21 22  1  0
 22 23  1  0
 23 24  1  6
 23 25  1  0
 25 26  2  0
 25 27  1  0
M  END
>  <rName>  (1558) 
Lys_palmitoyl

>  <PQ_SYMBOL>  (1558) 
Lys_palmitoyl

>  <FULL_NAME>  (1558) 
N6-palmitoyl-L-lysine

>  <IUPAC_CONDENSED>  (1558) 
Lys(palmitoyl)

>  <IUPAC>  (1558) 
(2S)-2-amino-6-(pentadecylcarbonylamino)hexanoic acid

>  <TYPE>  (1558) 
Backbone

>  <CLASS>  (1558) 
alpha

>  <ANALOG>  (1558) 
Lys

>  <MOL_WT>  (1558) 
384.6050000000002

>  <LOGP>  (1558) 
5.166100000000003

>  <TPSA>  (1558) 
92.42

>  <POPULARITY>  (1558) 
7.4

>  <PROTECTED>  (1558) 
TRUE

>  <SMILES>  (1558) 
CCCCCCCCCCCCCCCC(=O)NCCCC[C@H](N)C(=O)O

>  <INCHIKEY>  (1558) 
IWKZTTDNVPAHNP-FQEVSTJZSA-N

$$$$
D-Pen_MeNH2
     RDKit          2D

 11 10  0  0  0  0  0  0  0  0999 V2000
   -1.9787    1.8164    0.0000 N   0  0  0  0  0  0  0  0  0  0  0  0
   -1.1805    0.5465    0.0000 C   0  0  0  0  0  0  0  0  0  0  0  0
    0.3185    0.6029    0.0000 C   0  0  0  0  0  0  0  0  0  0  0  0
    0.2621    2.1018    0.0000 C   0  0  0  0  0  0  0  0  0  0  0  0
    0.3748   -0.8961    0.0000 C   0  0  0  0  0  0  0  0  0  0  0  0
    1.8174    0.6592    0.0000 S   0  0  0  0  0  0  0  0  0  0  0  0
    2.6157   -0.6107    0.0000 C   0  0  0  0  0  0  0  0  0  0  0  0
    4.1146   -0.5544    0.0000 N   0  0  0  0  0  0  0  0  0  0  0  0
   -1.8811   -0.7798    0.0000 C   0  0  0  0  0  0  0  0  0  0  0  0
   -1.0828   -2.0497    0.0000 O   0  0  0  0  0  0  0  0  0  0  0  0
   -3.3801   -0.8362    0.0000 O   0  0  0  0  0  0  0  0  0  0  0  0
  2  1  1  6
  2  3  1  0
  3  4  1  0
  3  5  1  0
  3  6  1  0
  6  7  1  0
  7  8  1  0
  2  9  1  0
  9 10  2  0
  9 11  1  0
M  END
>  <rName>  (1559) 
D-Pen_MeNH2

>  <PQ_SYMBOL>  (1559) 
D-Pen_MeNH2

>  <FULL_NAME>  (1559) 
(S)-2-amino-3-((aminomethyl)thio)-3-methylbutanoic acid

>  <IUPAC_CONDENSED>  (1559) 
D-Pen(MeNH2)

>  <IUPAC>  (1559) 
(2S)-2-amino-3-(aminomethylsulfanyl)-3-methylbutanoic acid

>  <TYPE>  (1559) 
Backbone

>  <CLASS>  (1559) 
alpha

>  <ANALOG>  (1559) 
Val

>  <MOL_WT>  (1559) 
178.25699999999998

>  <LOGP>  (1559) 
-0.17369999999999997

>  <TPSA>  (1559) 
89.34

>  <POPULARITY>  (1559) 
4.4

>  <PROTECTED>  (1559) 
TRUE

>  <SMILES>  (1559) 
N[C@H](C(C)(C)SCN)C(=O)O

>  <INCHIKEY>  (1559) 
WBZBPOLEDXHAQE-BYPYZUCNSA-N

$$$$
D-Glu_Oallyl
     RDKit          2D

 13 12  0  0  0  0  0  0  0  0999 V2000
    2.7270    1.9800    0.0000 N   0  0  0  0  0  0  0  0  0  0  0  0
    2.7052    0.4801    0.0000 C   0  0  0  0  0  0  0  0  0  0  0  0
    1.3955   -0.2510    0.0000 C   0  0  0  0  0  0  0  0  0  0  0  0
    0.1074    0.5177    0.0000 C   0  0  0  0  0  0  0  0  0  0  0  0
   -1.2023   -0.2134    0.0000 C   0  0  0  0  0  0  0  0  0  0  0  0
   -1.2240   -1.7132    0.0000 O   0  0  0  0  0  0  0  0  0  0  0  0
   -2.4904    0.5553    0.0000 O   0  0  0  0  0  0  0  0  0  0  0  0
   -3.8001   -0.1758    0.0000 C   0  0  0  0  0  0  0  0  0  0  0  0
   -5.0882    0.5930    0.0000 C   0  0  0  0  0  0  0  0  0  0  0  0
   -6.3979   -0.1382    0.0000 C   0  0  0  0  0  0  0  0  0  0  0  0
    3.9933   -0.2886    0.0000 C   0  0  0  0  0  0  0  0  0  0  0  0
    3.9716   -1.7885    0.0000 O   0  0  0  0  0  0  0  0  0  0  0  0
    5.3030    0.4425    0.0000 O   0  0  0  0  0  0  0  0  0  0  0  0
  2  1  1  1
  2  3  1  0
  3  4  1  0
  4  5  1  0
  5  6  2  0
  5  7  1  0
  7  8  1  0
  8  9  1  0
  9 10  2  0
  2 11  1  0
 11 12  2  0
 11 13  1  0
M  END
>  <rName>  (1560) 
D-Glu_Oallyl

>  <PQ_SYMBOL>  (1560) 
D-Glu_Oallyl

>  <FULL_NAME>  (1560) 
(R)-5-(allyloxy)-2-amino-5-oxopentanoic acid

>  <IUPAC_CONDENSED>  (1560) 
D-Glu(Oallyl)

>  <IUPAC>  (1560) 
(2R)-2-amino-4-(((prop-2-en-1-yl)oxy)carbonyl)butanoic acid

>  <TYPE>  (1560) 
Backbone

>  <CLASS>  (1560) 
alpha

>  <ANALOG>  (1560) 
Glu

>  <MOL_WT>  (1560) 
187.19499999999996

>  <LOGP>  (1560) 
-0.09230000000000033

>  <TPSA>  (1560) 
89.62000000000002

>  <POPULARITY>  (1560) 
3.5

>  <PROTECTED>  (1560) 
TRUE

>  <SMILES>  (1560) 
N[C@H](CCC(=O)OCC=C)C(=O)O

>  <INCHIKEY>  (1560) 
VTLKWXRVMXKNBW-ZCFIWIBFSA-N

$$$$
D-aAllocGaba
     RDKit          2D

 13 12  0  0  0  0  0  0  0  0999 V2000
   -0.2587   -2.0249    0.0000 N   0  0  0  0  0  0  0  0  0  0  0  0
   -0.2892   -0.5252    0.0000 C   0  0  0  0  0  0  0  0  0  0  0  0
    0.9944    0.2510    0.0000 C   0  0  0  0  0  0  0  0  0  0  0  0
    0.9639    1.7507    0.0000 O   0  0  0  0  0  0  0  0  0  0  0  0
    2.3084   -0.4724    0.0000 O   0  0  0  0  0  0  0  0  0  0  0  0
    3.5919    0.3038    0.0000 C   0  0  0  0  0  0  0  0  0  0  0  0
    4.9059   -0.4196    0.0000 C   0  0  0  0  0  0  0  0  0  0  0  0
    6.1894    0.3566    0.0000 C   0  0  0  0  0  0  0  0  0  0  0  0
   -1.6032    0.1982    0.0000 C   0  0  0  0  0  0  0  0  0  0  0  0
   -2.8867   -0.5780    0.0000 C   0  0  0  0  0  0  0  0  0  0  0  0
   -4.2007    0.1455    0.0000 C   0  0  0  0  0  0  0  0  0  0  0  0
   -4.2312    1.6451    0.0000 O   0  0  0  0  0  0  0  0  0  0  0  0
   -5.4842   -0.6308    0.0000 O   0  0  0  0  0  0  0  0  0  0  0  0
  2  1  1  6
  2  3  1  0
  3  4  2  0
  3  5  1  0
  5  6  1  0
  6  7  1  0
  7  8  2  0
  2  9  1  0
  9 10  1  0
 10 11  1  0
 11 12  2  0
 11 13  1  0
M  END
>  <rName>  (1561) 
D-aAllocGaba

>  <PQ_SYMBOL>  (1561) 
D-aAllocGaba

>  <FULL_NAME>  (1561) 
(R)-5-(allyloxy)-4-amino-5-oxopentanoic acid

>  <IUPAC_CONDENSED>  (1561) 
D-aAllocGaba

>  <IUPAC>  (1561) 
(4R)-4-amino-4-(((prop-2-en-1-yl)oxy)carbonyl)butanoic acid

>  <TYPE>  (1561) 
Backbone

>  <CLASS>  (1561) 
gamma

>  <ANALOG>  (1561) 
X

>  <MOL_WT>  (1561) 
187.19499999999996

>  <LOGP>  (1561) 
-0.09230000000000033

>  <TPSA>  (1561) 
89.62000000000002

>  <POPULARITY>  (1561) 
3.6

>  <PROTECTED>  (1561) 
TRUE

>  <SMILES>  (1561) 
N[C@@H](C(=O)OCC=C)CCC(=O)O

>  <INCHIKEY>  (1561) 
RMYWMXHQMALKJA-ZCFIWIBFSA-N

$$$$
Phe_34_5triF
     RDKit          2D

 15 15  0  0  0  0  0  0  0  0999 V2000
   -2.0609    1.6226    0.0000 N   0  0  0  0  0  0  0  0  0  0  0  0
   -2.4694    0.1793    0.0000 C   0  0  0  0  0  0  0  0  0  0  0  0
   -1.4237   -0.8961    0.0000 C   0  0  0  0  0  0  0  0  0  0  0  0
    0.0305   -0.5283    0.0000 C   0  0  0  0  0  0  0  0  0  0  0  0
    0.4390    0.9150    0.0000 C   0  0  0  0  0  0  0  0  0  0  0  0
    1.8932    1.2829    0.0000 C   0  0  0  0  0  0  0  0  0  0  0  0
    2.3017    2.7262    0.0000 F   0  0  0  0  0  0  0  0  0  0  0  0
    2.9389    0.2075    0.0000 C   0  0  0  0  0  0  0  0  0  0  0  0
    4.3931    0.5753    0.0000 F   0  0  0  0  0  0  0  0  0  0  0  0
    2.5304   -1.2358    0.0000 C   0  0  0  0  0  0  0  0  0  0  0  0
    3.5760   -2.3113    0.0000 F   0  0  0  0  0  0  0  0  0  0  0  0
    1.0762   -1.6037    0.0000 C   0  0  0  0  0  0  0  0  0  0  0  0
   -3.9236   -0.1886    0.0000 C   0  0  0  0  0  0  0  0  0  0  0  0
   -4.3321   -1.6319    0.0000 O   0  0  0  0  0  0  0  0  0  0  0  0
   -4.9693    0.8868    0.0000 O   0  0  0  0  0  0  0  0  0  0  0  0
  2  1  1  1
  2  3  1  0
  3  4  1  0
  4  5  2  0
  5  6  1  0
  6  7  1  0
  6  8  2  0
  8  9  1  0
  8 10  1  0
 10 11  1  0
 10 12  2  0
  2 13  1  0
 13 14  2  0
 13 15  1  0
 12  4  1  0
M  END
>  <rName>  (1562) 
Phe_34_5triF

>  <PQ_SYMBOL>  (1562) 
Phe_34_5triF

>  <FULL_NAME>  (1562) 
(S)-2-amino-3-(3,4,5-trifluorophenyl)propanoic acid

>  <IUPAC_CONDENSED>  (1562) 
Phe(3,4,5-triF)

>  <IUPAC>  (1562) 
(2S)-2-amino-3-(3,4,5-trifluorophenyl)propanoic acid

>  <TYPE>  (1562) 
Backbone

>  <CLASS>  (1562) 
alpha

>  <ANALOG>  (1562) 
Phe

>  <MOL_WT>  (1562) 
219.16199999999998

>  <LOGP>  (1562) 
1.0583000000000002

>  <TPSA>  (1562) 
63.32000000000001

>  <POPULARITY>  (1562) 
7.5

>  <PROTECTED>  (1562) 
TRUE

>  <SMILES>  (1562) 
N[C@@H](Cc1(cc(F)c(F)c(F)c1))C(=O)O

>  <INCHIKEY>  (1562) 
SFKCVRLOYOHGFK-ZETCQYMHSA-N

$$$$
bPhe_S
     RDKit          2D

 12 12  0  0  0  0  0  0  0  0999 V2000
   -1.0786   -1.8814    0.0000 N   0  0  0  0  0  0  0  0  0  0  0  0
   -0.6074   -0.4573    0.0000 C   0  0  0  0  0  0  0  0  0  0  0  0
    0.8615   -0.1534    0.0000 C   0  0  0  0  0  0  0  0  0  0  0  0
    1.3327    1.2707    0.0000 C   0  0  0  0  0  0  0  0  0  0  0  0
    2.8016    1.5746    0.0000 C   0  0  0  0  0  0  0  0  0  0  0  0
    3.7992    0.4545    0.0000 C   0  0  0  0  0  0  0  0  0  0  0  0
    3.3280   -0.9696    0.0000 C   0  0  0  0  0  0  0  0  0  0  0  0
    1.8591   -1.2735    0.0000 C   0  0  0  0  0  0  0  0  0  0  0  0
   -1.6051    0.6628    0.0000 C   0  0  0  0  0  0  0  0  0  0  0  0
   -3.0740    0.3588    0.0000 C   0  0  0  0  0  0  0  0  0  0  0  0
   -3.5452   -1.0652    0.0000 O   0  0  0  0  0  0  0  0  0  0  0  0
   -4.0716    1.4790    0.0000 O   0  0  0  0  0  0  0  0  0  0  0  0
  2  1  1  1
  2  3  1  0
  3  4  2  0
  4  5  1  0
  5  6  2  0
  6  7  1  0
  7  8  2  0
  2  9  1  0
  9 10  1  0
 10 11  2  0
 10 12  1  0
  8  3  1  0
M  END
>  <rName>  (1563) 
bPhe_S

>  <PQ_SYMBOL>  (1563) 
bPhe_S

>  <FULL_NAME>  (1563) 
(S)-3-amino-3-phenylpropanoic acid

>  <IUPAC_CONDENSED>  (1563) 
bPhe(S)

>  <IUPAC>  (1563) 
(3S)-3-amino-3-phenylpropanoic acid

>  <TYPE>  (1563) 
Backbone

>  <CLASS>  (1563) 
beta

>  <ANALOG>  (1563) 
X

>  <MOL_WT>  (1563) 
165.19199999999998

>  <LOGP>  (1563) 
1.1611

>  <TPSA>  (1563) 
63.32000000000001

>  <POPULARITY>  (1563) 
13.7

>  <PROTECTED>  (1563) 
TRUE

>  <SMILES>  (1563) 
N[C@H](c1(ccccc1))CC(=O)O

>  <INCHIKEY>  (1563) 
UJOYFRCOTPUKAK-QMMMGPOBSA-N

$$$$
bAla_3RBn
     RDKit          2D

 13 13  0  0  0  0  0  0  0  0999 V2000
   -0.9767    1.2065    0.0000 N   0  0  0  0  0  0  0  0  0  0  0  0
   -1.1358   -0.2850    0.0000 C   0  0  0  0  0  0  0  0  0  0  0  0
    0.0764   -1.1685    0.0000 C   0  0  0  0  0  0  0  0  0  0  0  0
    1.4476   -0.5605    0.0000 C   0  0  0  0  0  0  0  0  0  0  0  0
    1.6067    0.9310    0.0000 C   0  0  0  0  0  0  0  0  0  0  0  0
    2.9779    1.5390    0.0000 C   0  0  0  0  0  0  0  0  0  0  0  0
    4.1901    0.6555    0.0000 C   0  0  0  0  0  0  0  0  0  0  0  0
    4.0310   -0.8361    0.0000 C   0  0  0  0  0  0  0  0  0  0  0  0
    2.6598   -1.4441    0.0000 C   0  0  0  0  0  0  0  0  0  0  0  0
   -2.5071   -0.8930    0.0000 C   0  0  0  0  0  0  0  0  0  0  0  0
   -3.7192   -0.0095    0.0000 C   0  0  0  0  0  0  0  0  0  0  0  0
   -3.5602    1.4821    0.0000 O   0  0  0  0  0  0  0  0  0  0  0  0
   -5.0905   -0.6175    0.0000 O   0  0  0  0  0  0  0  0  0  0  0  0
  2  1  1  6
  2  3  1  0
  3  4  1  0
  4  5  2  0
  5  6  1  0
  6  7  2  0
  7  8  1  0
  8  9  2  0
  2 10  1  0
 10 11  1  0
 11 12  2  0
 11 13  1  0
  9  4  1  0
M  END
>  <rName>  (1564) 
bAla_3RBn

>  <PQ_SYMBOL>  (1564) 
bAla_3RBn

>  <FULL_NAME>  (1564) 
(R)-3-amino-4-phenylbutanoic acid

>  <IUPAC_CONDENSED>  (1564) 
bAla(3R-Bn)

>  <IUPAC>  (1564) 
(3R)-3-amino-4-phenylbutanoic acid

>  <TYPE>  (1564) 
Backbone

>  <CLASS>  (1564) 
beta

>  <ANALOG>  (1564) 
Phe

>  <MOL_WT>  (1564) 
179.21899999999994

>  <LOGP>  (1564) 
1.0311000000000001

>  <TPSA>  (1564) 
63.32000000000001

>  <POPULARITY>  (1564) 
14.9

>  <PROTECTED>  (1564) 
TRUE

>  <SMILES>  (1564) 
N[C@H](Cc1(ccccc1))CC(=O)O

>  <INCHIKEY>  (1564) 
OFVBLKINTLPEGH-SECBINFHSA-N

$$$$
Cys_23dipalmitoyloxypropyl
     RDKit          2D

 46 45  0  0  0  0  0  0  0  0999 V2000
    3.0206    3.2686    0.0000 N   0  0  0  0  0  0  0  0  0  0  0  0
    1.7278    4.0293    0.0000 C   0  0  0  0  0  0  0  0  0  0  0  0
    0.4226    3.2901    0.0000 C   0  0  0  0  0  0  0  0  0  0  0  0
    0.4102    1.7901    0.0000 S   0  0  0  0  0  0  0  0  0  0  0  0
   -0.8950    1.0509    0.0000 C   0  0  0  0  0  0  0  0  0  0  0  0
   -0.9074   -0.4490    0.0000 C   0  0  0  0  0  0  0  0  0  0  0  0
   -2.2126   -1.1882    0.0000 O   0  0  0  0  0  0  0  0  0  0  0  0
   -3.5054   -0.4275    0.0000 C   0  0  0  0  0  0  0  0  0  0  0  0
   -3.4930    1.0724    0.0000 O   0  0  0  0  0  0  0  0  0  0  0  0
   -4.8106   -1.1667    0.0000 C   0  0  0  0  0  0  0  0  0  0  0  0
   -6.1034   -0.4060    0.0000 C   0  0  0  0  0  0  0  0  0  0  0  0
   -7.4086   -1.1452    0.0000 C   0  0  0  0  0  0  0  0  0  0  0  0
   -8.7014   -0.3845    0.0000 C   0  0  0  0  0  0  0  0  0  0  0  0
  -10.0066   -1.1237    0.0000 C   0  0  0  0  0  0  0  0  0  0  0  0
  -11.2994   -0.3630    0.0000 C   0  0  0  0  0  0  0  0  0  0  0  0
  -12.6046   -1.1022    0.0000 C   0  0  0  0  0  0  0  0  0  0  0  0
  -13.8974   -0.3414    0.0000 C   0  0  0  0  0  0  0  0  0  0  0  0
  -15.2026   -1.0807    0.0000 C   0  0  0  0  0  0  0  0  0  0  0  0
  -16.4954   -0.3199    0.0000 C   0  0  0  0  0  0  0  0  0  0  0  0
  -17.8006   -1.0591    0.0000 C   0  0  0  0  0  0  0  0  0  0  0  0
  -19.0933   -0.2984    0.0000 C   0  0  0  0  0  0  0  0  0  0  0  0
  -20.3985   -1.0376    0.0000 C   0  0  0  0  0  0  0  0  0  0  0  0
  -21.6913   -0.2769    0.0000 C   0  0  0  0  0  0  0  0  0  0  0  0
  -22.9965   -1.0161    0.0000 C   0  0  0  0  0  0  0  0  0  0  0  0
    0.3854   -1.2098    0.0000 C   0  0  0  0  0  0  0  0  0  0  0  0
    1.6906   -0.4705    0.0000 O   0  0  0  0  0  0  0  0  0  0  0  0
    2.9833   -1.2313    0.0000 C   0  0  0  0  0  0  0  0  0  0  0  0
    2.9709   -2.7312    0.0000 O   0  0  0  0  0  0  0  0  0  0  0  0
    4.2885   -0.4921    0.0000 C   0  0  0  0  0  0  0  0  0  0  0  0
    5.5813   -1.2528    0.0000 C   0  0  0  0  0  0  0  0  0  0  0  0
    6.8865   -0.5136    0.0000 C   0  0  0  0  0  0  0  0  0  0  0  0
    8.1793   -1.2743    0.0000 C   0  0  0  0  0  0  0  0  0  0  0  0
    9.4845   -0.5351    0.0000 C   0  0  0  0  0  0  0  0  0  0  0  0
   10.7773   -1.2958    0.0000 C   0  0  0  0  0  0  0  0  0  0  0  0
   12.0825   -0.5566    0.0000 C   0  0  0  0  0  0  0  0  0  0  0  0
   13.3753   -1.3173    0.0000 C   0  0  0  0  0  0  0  0  0  0  0  0
   14.6805   -0.5781    0.0000 C   0  0  0  0  0  0  0  0  0  0  0  0
   15.9733   -1.3388    0.0000 C   0  0  0  0  0  0  0  0  0  0  0  0
   17.2785   -0.5996    0.0000 C   0  0  0  0  0  0  0  0  0  0  0  0
   18.5713   -1.3604    0.0000 C   0  0  0  0  0  0  0  0  0  0  0  0
   19.8765   -0.6211    0.0000 C   0  0  0  0  0  0  0  0  0  0  0  0
   21.1693   -1.3819    0.0000 C   0  0  0  0  0  0  0  0  0  0  0  0
   22.4745   -0.6427    0.0000 C   0  0  0  0  0  0  0  0  0  0  0  0
    1.7402    5.5293    0.0000 C   0  0  0  0  0  0  0  0  0  0  0  0
    0.4475    6.2900    0.0000 O   0  0  0  0  0  0  0  0  0  0  0  0
    3.0455    6.2685    0.0000 O   0  0  0  0  0  0  0  0  0  0  0  0
  2  1  1  1
  2  3  1  0
  3  4  1  0
  4  5  1  0
  5  6  1  0
  6  7  1  0
  7  8  1  0
  8  9  2  0
  8 10  1  0
 10 11  1  0
 11 12  1  0
 12 13  1  0
 13 14  1  0
 14 15  1  0
 15 16  1  0
 16 17  1  0
 17 18  1  0
 18 19  1  0
 19 20  1  0
 20 21  1  0
 21 22  1  0
 22 23  1  0
 23 24  1  0
  6 25  1  0
 25 26  1  0
 26 27  1  0
 27 28  2  0
 27 29  1  0
 29 30  1  0
 30 31  1  0
 31 32  1  0
 32 33  1  0
 33 34  1  0
 34 35  1  0
 35 36  1  0
 36 37  1  0
 37 38  1  0
 38 39  1  0
 39 40  1  0
 40 41  1  0
 41 42  1  0
 42 43  1  0
  2 44  1  0
 44 45  2  0
 44 46  1  0
M  END
>  <rName>  (1565) 
Cys_23dipalmitoyloxypropyl

>  <PQ_SYMBOL>  (1565) 
Cys_23dipalmitoyloxypropyl

>  <FULL_NAME>  (1565) 
S-(2,3-bis(palmitoyloxy)propyl)-L-cysteine

>  <IUPAC_CONDENSED>  (1565) 
Cys(2,3-dipalmitoyloxypropyl)

>  <IUPAC>  (1565) 
(2R)-2-amino-3-((2,3-bis(pentadecylcarbonyloxy)propyl)sulfanyl)propanoic acid

>  <TYPE>  (1565) 
Backbone

>  <CLASS>  (1565) 
alpha

>  <ANALOG>  (1565) 
Cys

>  <MOL_WT>  (1565) 
672.0700000000002

>  <LOGP>  (1565) 
10.549099999999997

>  <TPSA>  (1565) 
115.92

>  <POPULARITY>  (1565) 
6.3

>  <PROTECTED>  (1565) 
TRUE

>  <SMILES>  (1565) 
N[C@@H](CSCC(OC(=O)CCCCCCCCCCCCCCC)COC(=O)CCCCCCCCCCCCCCC)C(=O)O

>  <INCHIKEY>  (1565) 
UPAQRWMRKQCLSD-HTIIIDOHSA-N

$$$$
bAla_3SEtPh
     RDKit          2D

 14 14  0  0  0  0  0  0  0  0999 V2000
   -2.1732   -1.6585    0.0000 N   0  0  0  0  0  0  0  0  0  0  0  0
   -1.8487   -0.1940    0.0000 C   0  0  0  0  0  0  0  0  0  0  0  0
   -0.4182    0.2573    0.0000 C   0  0  0  0  0  0  0  0  0  0  0  0
    0.6879   -0.7560    0.0000 C   0  0  0  0  0  0  0  0  0  0  0  0
    2.1184   -0.3047    0.0000 C   0  0  0  0  0  0  0  0  0  0  0  0
    2.4428    1.1598    0.0000 C   0  0  0  0  0  0  0  0  0  0  0  0
    3.8734    1.6110    0.0000 C   0  0  0  0  0  0  0  0  0  0  0  0
    4.9794    0.5978    0.0000 C   0  0  0  0  0  0  0  0  0  0  0  0
    4.6549   -0.8667    0.0000 C   0  0  0  0  0  0  0  0  0  0  0  0
    3.2244   -1.3180    0.0000 C   0  0  0  0  0  0  0  0  0  0  0  0
   -2.9548    0.8193    0.0000 C   0  0  0  0  0  0  0  0  0  0  0  0
   -4.3853    0.3680    0.0000 C   0  0  0  0  0  0  0  0  0  0  0  0
   -4.7097   -1.0965    0.0000 O   0  0  0  0  0  0  0  0  0  0  0  0
   -5.4913    1.3812    0.0000 O   0  0  0  0  0  0  0  0  0  0  0  0
  2  1  1  6
  2  3  1  0
  3  4  1  0
  4  5  1  0
  5  6  2  0
  6  7  1  0
  7  8  2  0
  8  9  1  0
  9 10  2  0
  2 11  1  0
 11 12  1  0
 12 13  2  0
 12 14  1  0
 10  5  1  0
M  END
>  <rName>  (1566) 
bAla_3SEtPh

>  <PQ_SYMBOL>  (1566) 
bAla_3SEtPh

>  <FULL_NAME>  (1566) 
(S)-3-amino-5-phenylpentanoic acid

>  <IUPAC_CONDENSED>  (1566) 
bAla(3S-EtPh)

>  <IUPAC>  (1566) 
(3S)-3-amino-5-phenylpentanoic acid

>  <TYPE>  (1566) 
Backbone

>  <CLASS>  (1566) 
beta

>  <ANALOG>  (1566) 
Phe

>  <MOL_WT>  (1566) 
193.24599999999995

>  <LOGP>  (1566) 
1.4211999999999998

>  <TPSA>  (1566) 
63.32000000000001

>  <POPULARITY>  (1566) 
9.7

>  <PROTECTED>  (1566) 
TRUE

>  <SMILES>  (1566) 
N[C@@H](CCc1(ccccc1))CC(=O)O

>  <INCHIKEY>  (1566) 
CJJYCYZKUNRKFP-JTQLQIEISA-N

$$$$
D-aMeTrp
     RDKit          2D

 16 17  0  0  0  0  0  0  0  0999 V2000
   -1.7481   -1.6804    0.0000 N   0  0  0  0  0  0  0  0  0  0  0  0
   -2.4966   -0.3805    0.0000 C   0  0  0  0  0  0  0  0  0  0  0  0
   -3.7965   -1.1291    0.0000 C   0  0  0  0  0  0  0  0  0  0  0  0
   -1.1967    0.3680    0.0000 C   0  0  0  0  0  0  0  0  0  0  0  0
    0.1015   -0.3835    0.0000 C   0  0  0  0  0  0  0  0  0  0  0  0
    0.2566   -1.8754    0.0000 C   0  0  0  0  0  0  0  0  0  0  0  0
    1.7234   -2.1889    0.0000 N   0  0  0  0  0  0  0  0  0  0  0  0
    2.4749   -0.8908    0.0000 C   0  0  0  0  0  0  0  0  0  0  0  0
    3.9425   -0.5805    0.0000 C   0  0  0  0  0  0  0  0  0  0  0  0
    4.4076    0.8455    0.0000 C   0  0  0  0  0  0  0  0  0  0  0  0
    3.4052    1.9614    0.0000 C   0  0  0  0  0  0  0  0  0  0  0  0
    1.9376    1.6512    0.0000 C   0  0  0  0  0  0  0  0  0  0  0  0
    1.4725    0.2251    0.0000 C   0  0  0  0  0  0  0  0  0  0  0  0
   -3.2451    0.9194    0.0000 C   0  0  0  0  0  0  0  0  0  0  0  0
   -4.7451    0.9211    0.0000 O   0  0  0  0  0  0  0  0  0  0  0  0
   -2.4937    2.2176    0.0000 O   0  0  0  0  0  0  0  0  0  0  0  0
  1  2  1  0
  2  3  1  6
  2  4  1  0
  4  5  1  0
  5  6  2  0
  6  7  1  0
  7  8  1  0
  8  9  2  0
  9 10  1  0
 10 11  2  0
 11 12  1  0
 12 13  2  0
  2 14  1  0
 14 15  2  0
 14 16  1  0
 13  8  1  0
 13  5  1  0
M  END
>  <rName>  (1567) 
D-aMeTrp

>  <PQ_SYMBOL>  (1567) 
D-aMeTrp

>  <FULL_NAME>  (1567) 
(R)-2-amino-3-(1H-indol-3-yl)-2-methylpropanoic acid

>  <IUPAC_CONDENSED>  (1567) 
D-aMeTrp

>  <IUPAC>  (1567) 
(2R)-2-amino-2-((1H-indol-3-yl)methyl)propanoic acid

>  <TYPE>  (1567) 
Backbone

>  <CLASS>  (1567) 
alpha

>  <ANALOG>  (1567) 
Trp

>  <MOL_WT>  (1567) 
218.256

>  <LOGP>  (1567) 
1.5123999999999997

>  <TPSA>  (1567) 
79.11

>  <POPULARITY>  (1567) 
6.8

>  <PROTECTED>  (1567) 
TRUE

>  <SMILES>  (1567) 
N[C@](C)(Cc2(c[nH]c1(ccccc12)))C(=O)O

>  <INCHIKEY>  (1567) 
ZTTWHZHBPDYSQB-GFCCVEGCSA-N

$$$$
3R-amino-cyclopentane-1S-CO2H
     RDKit          2D

  9  9  0  0  0  0  0  0  0  0999 V2000
   -3.3052   -0.8467    0.0000 N   0  0  0  0  0  0  0  0  0  0  0  0
   -1.9481   -0.2077    0.0000 C   0  0  0  0  0  0  0  0  0  0  0  0
   -0.6334   -0.9301    0.0000 C   0  0  0  0  0  0  0  0  0  0  0  0
    0.4598    0.0969    0.0000 C   0  0  0  0  0  0  0  0  0  0  0  0
   -0.1792    1.4541    0.0000 C   0  0  0  0  0  0  0  0  0  0  0  0
   -1.6673    1.2657    0.0000 C   0  0  0  0  0  0  0  0  0  0  0  0
    1.9333   -0.1838    0.0000 C   0  0  0  0  0  0  0  0  0  0  0  0
    2.9132    0.9519    0.0000 O   0  0  0  0  0  0  0  0  0  0  0  0
    2.4269   -1.6003    0.0000 O   0  0  0  0  0  0  0  0  0  0  0  0
  2  1  1  6
  2  3  1  0
  3  4  1  0
  4  5  1  0
  5  6  1  0
  4  7  1  6
  7  8  2  0
  7  9  1  0
  6  2  1  0
M  END
>  <rName>  (1568) 
3R-amino-cyclopentane-1S-CO2H

>  <PQ_SYMBOL>  (1568) 
3R-amino-cyclopentane-1S-CO2H

>  <FULL_NAME>  (1568) 
(1S,3R)-3-aminocyclopentane-1-carboxylic acid

>  <IUPAC_CONDENSED>  (1568) 
3R-amino-cyclopentane-1S-CO2H

>  <IUPAC>  (1568) 
(1S,3R)-3-aminocyclopentanecarboxylic acid

>  <TYPE>  (1568) 
Backbone

>  <CLASS>  (1568) 
gamma

>  <ANALOG>  (1568) 
Ala

>  <MOL_WT>  (1568) 
129.15900000000002

>  <LOGP>  (1568) 
0.19839999999999985

>  <TPSA>  (1568) 
63.32000000000001

>  <POPULARITY>  (1568) 
11.4

>  <PROTECTED>  (1568) 
TRUE

>  <SMILES>  (1568) 
N[C@H]1C[C@H](CC1)C(=O)O

>  <INCHIKEY>  (1568) 
MLLSSTJTARJLHK-CRCLSJGQSA-N

$$$$
bAla_3RPh_4Br
     RDKit          2D

 13 13  0  0  0  0  0  0  0  0999 V2000
   -1.5598   -1.8792    0.0000 N   0  0  0  0  0  0  0  0  0  0  0  0
   -1.0324   -0.4750    0.0000 C   0  0  0  0  0  0  0  0  0  0  0  0
    0.4474   -0.2297    0.0000 C   0  0  0  0  0  0  0  0  0  0  0  0
    0.9749    1.1745    0.0000 C   0  0  0  0  0  0  0  0  0  0  0  0
    2.4547    1.4199    0.0000 C   0  0  0  0  0  0  0  0  0  0  0  0
    3.4070    0.2610    0.0000 C   0  0  0  0  0  0  0  0  0  0  0  0
    4.8868    0.5063    0.0000 Br  0  0  0  0  0  0  0  0  0  0  0  0
    2.8796   -1.1432    0.0000 C   0  0  0  0  0  0  0  0  0  0  0  0
    1.3998   -1.3886    0.0000 C   0  0  0  0  0  0  0  0  0  0  0  0
   -1.9847    0.6838    0.0000 C   0  0  0  0  0  0  0  0  0  0  0  0
   -3.4645    0.4385    0.0000 C   0  0  0  0  0  0  0  0  0  0  0  0
   -3.9920   -0.9657    0.0000 O   0  0  0  0  0  0  0  0  0  0  0  0
   -4.4169    1.5974    0.0000 O   0  0  0  0  0  0  0  0  0  0  0  0
  2  1  1  1
  2  3  1  0
  3  4  1  0
  4  5  2  0
  5  6  1  0
  6  7  1  0
  6  8  2  0
  8  9  1  0
  2 10  1  0
 10 11  1  0
 11 12  2  0
 11 13  1  0
  9  3  2  0
M  END
>  <rName>  (1569) 
bAla_3RPh_4Br

>  <PQ_SYMBOL>  (1569) 
bAla_3RPh_4Br

>  <FULL_NAME>  (1569) 
(S)-3-amino-3-(4-bromophenyl)propanoic acid

>  <IUPAC_CONDENSED>  (1569) 
bAla(3R-Ph(4-Br))

>  <IUPAC>  (1569) 
(3S)-3-amino-3-(4-bromophenyl)propanoic acid

>  <TYPE>  (1569) 
Backbone

>  <CLASS>  (1569) 
beta

>  <ANALOG>  (1569) 
X

>  <MOL_WT>  (1569) 
244.08799999999997

>  <LOGP>  (1569) 
1.9236

>  <TPSA>  (1569) 
63.32000000000001

>  <POPULARITY>  (1569) 
8.2

>  <PROTECTED>  (1569) 
TRUE

>  <SMILES>  (1569) 
N[C@H](c1(ccc(Br)cc1))CC(=O)O

>  <INCHIKEY>  (1569) 
RBOUYDUXPMAYMJ-QMMMGPOBSA-N

$$$$
D-Phe_2Br
     RDKit          2D

 13 13  0  0  0  0  0  0  0  0999 V2000
   -1.4864    1.8099    0.0000 N   0  0  0  0  0  0  0  0  0  0  0  0
   -1.7669    0.3364    0.0000 C   0  0  0  0  0  0  0  0  0  0  0  0
   -0.6311   -0.6433    0.0000 C   0  0  0  0  0  0  0  0  0  0  0  0
    0.7853   -0.1495    0.0000 C   0  0  0  0  0  0  0  0  0  0  0  0
    1.0658    1.3241    0.0000 C   0  0  0  0  0  0  0  0  0  0  0  0
    2.4822    1.8179    0.0000 C   0  0  0  0  0  0  0  0  0  0  0  0
    3.6181    0.8382    0.0000 C   0  0  0  0  0  0  0  0  0  0  0  0
    3.3376   -0.6353    0.0000 C   0  0  0  0  0  0  0  0  0  0  0  0
    1.9212   -1.1292    0.0000 C   0  0  0  0  0  0  0  0  0  0  0  0
    1.6407   -2.6027    0.0000 Br  0  0  0  0  0  0  0  0  0  0  0  0
   -3.1833   -0.1575    0.0000 C   0  0  0  0  0  0  0  0  0  0  0  0
   -3.4638   -1.6310    0.0000 O   0  0  0  0  0  0  0  0  0  0  0  0
   -4.3192    0.8222    0.0000 O   0  0  0  0  0  0  0  0  0  0  0  0
  2  1  1  6
  2  3  1  0
  3  4  1  0
  4  5  2  0
  5  6  1  0
  6  7  2  0
  7  8  1  0
  8  9  2  0
  9 10  1  0
  2 11  1  0
 11 12  2  0
 11 13  1  0
  9  4  1  0
M  END
>  <rName>  (1570) 
D-Phe_2Br

>  <PQ_SYMBOL>  (1570) 
D-Phe_2Br

>  <FULL_NAME>  (1570) 
(R)-2-amino-3-(2-bromophenyl)propanoic acid

>  <IUPAC_CONDENSED>  (1570) 
D-Phe(2-Br)

>  <IUPAC>  (1570) 
(2R)-2-amino-3-(2-bromophenyl)propanoic acid

>  <TYPE>  (1570) 
Backbone

>  <CLASS>  (1570) 
alpha

>  <ANALOG>  (1570) 
Phe

>  <MOL_WT>  (1570) 
244.08799999999997

>  <LOGP>  (1570) 
1.4035000000000002

>  <TPSA>  (1570) 
63.32000000000001

>  <POPULARITY>  (1570) 
6.8

>  <PROTECTED>  (1570) 
TRUE

>  <SMILES>  (1570) 
N[C@H](Cc1(ccccc1Br))C(=O)O

>  <INCHIKEY>  (1570) 
JFVLNTLXEZDFHW-MRVPVSSYSA-N

$$$$
bPhe_R
     RDKit          2D

 12 12  0  0  0  0  0  0  0  0999 V2000
   -1.0786   -1.8814    0.0000 N   0  0  0  0  0  0  0  0  0  0  0  0
   -0.6074   -0.4573    0.0000 C   0  0  0  0  0  0  0  0  0  0  0  0
    0.8615   -0.1534    0.0000 C   0  0  0  0  0  0  0  0  0  0  0  0
    1.3327    1.2707    0.0000 C   0  0  0  0  0  0  0  0  0  0  0  0
    2.8016    1.5746    0.0000 C   0  0  0  0  0  0  0  0  0  0  0  0
    3.7992    0.4545    0.0000 C   0  0  0  0  0  0  0  0  0  0  0  0
    3.3280   -0.9696    0.0000 C   0  0  0  0  0  0  0  0  0  0  0  0
    1.8591   -1.2735    0.0000 C   0  0  0  0  0  0  0  0  0  0  0  0
   -1.6051    0.6628    0.0000 C   0  0  0  0  0  0  0  0  0  0  0  0
   -3.0740    0.3588    0.0000 C   0  0  0  0  0  0  0  0  0  0  0  0
   -3.5452   -1.0652    0.0000 O   0  0  0  0  0  0  0  0  0  0  0  0
   -4.0716    1.4790    0.0000 O   0  0  0  0  0  0  0  0  0  0  0  0
  2  1  1  6
  2  3  1  0
  3  4  2  0
  4  5  1  0
  5  6  2  0
  6  7  1  0
  7  8  2  0
  2  9  1  0
  9 10  1  0
 10 11  2  0
 10 12  1  0
  8  3  1  0
M  END
>  <rName>  (1571) 
bPhe_R

>  <PQ_SYMBOL>  (1571) 
bPhe_R

>  <FULL_NAME>  (1571) 
(R)-3-amino-3-phenylpropanoic acid

>  <IUPAC_CONDENSED>  (1571) 
bPhe(R)

>  <IUPAC>  (1571) 
(3R)-3-amino-3-phenylpropanoic acid

>  <TYPE>  (1571) 
Backbone

>  <CLASS>  (1571) 
beta

>  <ANALOG>  (1571) 
X

>  <MOL_WT>  (1571) 
165.19199999999998

>  <LOGP>  (1571) 
1.1611

>  <TPSA>  (1571) 
63.32000000000001

>  <POPULARITY>  (1571) 
14.5

>  <PROTECTED>  (1571) 
TRUE

>  <SMILES>  (1571) 
N[C@@H](c1(ccccc1))CC(=O)O

>  <INCHIKEY>  (1571) 
UJOYFRCOTPUKAK-MRVPVSSYSA-N

$$$$
bAla_3SPh_4Br
     RDKit          2D

 13 13  0  0  0  0  0  0  0  0999 V2000
   -1.5598   -1.8792    0.0000 N   0  0  0  0  0  0  0  0  0  0  0  0
   -1.0324   -0.4750    0.0000 C   0  0  0  0  0  0  0  0  0  0  0  0
    0.4474   -0.2297    0.0000 C   0  0  0  0  0  0  0  0  0  0  0  0
    0.9749    1.1745    0.0000 C   0  0  0  0  0  0  0  0  0  0  0  0
    2.4547    1.4199    0.0000 C   0  0  0  0  0  0  0  0  0  0  0  0
    3.4070    0.2610    0.0000 C   0  0  0  0  0  0  0  0  0  0  0  0
    4.8868    0.5063    0.0000 Br  0  0  0  0  0  0  0  0  0  0  0  0
    2.8796   -1.1432    0.0000 C   0  0  0  0  0  0  0  0  0  0  0  0
    1.3998   -1.3886    0.0000 C   0  0  0  0  0  0  0  0  0  0  0  0
   -1.9847    0.6838    0.0000 C   0  0  0  0  0  0  0  0  0  0  0  0
   -3.4645    0.4385    0.0000 C   0  0  0  0  0  0  0  0  0  0  0  0
   -3.9920   -0.9657    0.0000 O   0  0  0  0  0  0  0  0  0  0  0  0
   -4.4169    1.5974    0.0000 O   0  0  0  0  0  0  0  0  0  0  0  0
  2  1  1  6
  2  3  1  0
  3  4  1  0
  4  5  2  0
  5  6  1  0
  6  7  1  0
  6  8  2  0
  8  9  1  0
  2 10  1  0
 10 11  1  0
 11 12  2  0
 11 13  1  0
  9  3  2  0
M  END
>  <rName>  (1572) 
bAla_3SPh_4Br

>  <PQ_SYMBOL>  (1572) 
bAla_3SPh_4Br

>  <FULL_NAME>  (1572) 
(R)-3-amino-3-(4-bromophenyl)propanoic acid

>  <IUPAC_CONDENSED>  (1572) 
bAla(3S-Ph(4-Br))

>  <IUPAC>  (1572) 
(3R)-3-amino-3-(4-bromophenyl)propanoic acid

>  <TYPE>  (1572) 
Backbone

>  <CLASS>  (1572) 
beta

>  <ANALOG>  (1572) 
X

>  <MOL_WT>  (1572) 
244.08799999999997

>  <LOGP>  (1572) 
1.9236

>  <TPSA>  (1572) 
63.32000000000001

>  <POPULARITY>  (1572) 
8.7

>  <PROTECTED>  (1572) 
TRUE

>  <SMILES>  (1572) 
N[C@@H](c1(ccc(Br)cc1))CC(=O)O

>  <INCHIKEY>  (1572) 
RBOUYDUXPMAYMJ-MRVPVSSYSA-N

$$$$
Cys_benzhydryl
     RDKit          2D

 20 21  0  0  0  0  0  0  0  0999 V2000
   -2.9654   -2.8732    0.0000 N   0  0  0  0  0  0  0  0  0  0  0  0
   -3.1211   -1.3813    0.0000 C   0  0  0  0  0  0  0  0  0  0  0  0
   -1.9069   -0.5006    0.0000 C   0  0  0  0  0  0  0  0  0  0  0  0
   -0.5371   -1.1117    0.0000 S   0  0  0  0  0  0  0  0  0  0  0  0
    0.6771   -0.2310    0.0000 C   0  0  0  0  0  0  0  0  0  0  0  0
    2.0470   -0.8421    0.0000 C   0  0  0  0  0  0  0  0  0  0  0  0
    2.2027   -2.3340    0.0000 C   0  0  0  0  0  0  0  0  0  0  0  0
    3.5725   -2.9452    0.0000 C   0  0  0  0  0  0  0  0  0  0  0  0
    4.7867   -2.0644    0.0000 C   0  0  0  0  0  0  0  0  0  0  0  0
    4.6310   -0.5725    0.0000 C   0  0  0  0  0  0  0  0  0  0  0  0
    3.2612    0.0386    0.0000 C   0  0  0  0  0  0  0  0  0  0  0  0
    0.5215    1.2609    0.0000 C   0  0  0  0  0  0  0  0  0  0  0  0
    1.7357    2.1417    0.0000 C   0  0  0  0  0  0  0  0  0  0  0  0
    1.5800    3.6336    0.0000 C   0  0  0  0  0  0  0  0  0  0  0  0
    0.2102    4.2447    0.0000 C   0  0  0  0  0  0  0  0  0  0  0  0
   -1.0040    3.3640    0.0000 C   0  0  0  0  0  0  0  0  0  0  0  0
   -0.8484    1.8721    0.0000 C   0  0  0  0  0  0  0  0  0  0  0  0
   -4.4910   -0.7702    0.0000 C   0  0  0  0  0  0  0  0  0  0  0  0
   -4.6466    0.7217    0.0000 O   0  0  0  0  0  0  0  0  0  0  0  0
   -5.7051   -1.6510    0.0000 O   0  0  0  0  0  0  0  0  0  0  0  0
  2  1  1  6
  2  3  1  0
  3  4  1  0
  4  5  1  0
  5  6  1  0
  6  7  2  0
  7  8  1  0
  8  9  2  0
  9 10  1  0
 10 11  2  0
  5 12  1  0
 12 13  2  0
 13 14  1  0
 14 15  2  0
 15 16  1  0
 16 17  2  0
  2 18  1  0
 18 19  2  0
 18 20  1  0
 11  6  1  0
 17 12  1  0
M  END
>  <rName>  (1573) 
Cys_benzhydryl

>  <PQ_SYMBOL>  (1573) 
Cys_benzhydryl

>  <FULL_NAME>  (1573) 
S-benzhydryl-L-cysteine

>  <IUPAC_CONDENSED>  (1573) 
Cys(benzhydryl)

>  <IUPAC>  (1573) 
(2R)-2-amino-3-((diphenylmethyl)sulfanyl)propanoic acid

>  <TYPE>  (1573) 
Backbone

>  <CLASS>  (1573) 
alpha

>  <ANALOG>  (1573) 
Cys

>  <MOL_WT>  (1573) 
287.384

>  <LOGP>  (1573) 
2.921100000000001

>  <TPSA>  (1573) 
63.32000000000001

>  <POPULARITY>  (1573) 
8.7

>  <PROTECTED>  (1573) 
TRUE

>  <SMILES>  (1573) 
N[C@@H](CSC(c1(ccccc1))c2(ccccc2))C(=O)O

>  <INCHIKEY>  (1573) 
SHOGZCIBPYFZRP-AWEZNQCLSA-N

$$$$
Val_34dehydro
     RDKit          2D

  8  7  0  0  0  0  0  0  0  0999 V2000
    0.0000    2.0625    0.0000 N   0  0  0  0  0  0  0  0  0  0  0  0
    0.0000    0.5625    0.0000 C   0  0  0  0  0  0  0  0  0  0  0  0
   -1.2990   -0.1875    0.0000 C   0  0  0  0  0  0  0  0  0  0  0  0
   -2.5981    0.5625    0.0000 C   0  0  0  0  0  0  0  0  0  0  0  0
   -1.2990   -1.6875    0.0000 C   0  0  0  0  0  0  0  0  0  0  0  0
    1.2990   -0.1875    0.0000 C   0  0  0  0  0  0  0  0  0  0  0  0
    1.2990   -1.6875    0.0000 O   0  0  0  0  0  0  0  0  0  0  0  0
    2.5981    0.5625    0.0000 O   0  0  0  0  0  0  0  0  0  0  0  0
  2  1  1  6
  2  3  1  0
  3  4  2  0
  3  5  1  0
  2  6  1  0
  6  7  2  0
  6  8  1  0
M  END
>  <rName>  (1574) 
Val_34dehydro

>  <PQ_SYMBOL>  (1574) 
Val_34dehydro

>  <FULL_NAME>  (1574) 
(S)-2-amino-3-methylbut-3-enoic acid

>  <IUPAC_CONDENSED>  (1574) 
Val(3,4-dehydro)

>  <IUPAC>  (1574) 
(2S)-2-amino-3-methylbut-3-enoic acid

>  <TYPE>  (1574) 
Backbone

>  <CLASS>  (1574) 
alpha

>  <ANALOG>  (1574) 
Val

>  <MOL_WT>  (1574) 
115.13199999999998

>  <LOGP>  (1574) 
-0.0255999999999999

>  <TPSA>  (1574) 
63.32000000000001

>  <POPULARITY>  (1574) 
9

>  <PROTECTED>  (1574) 
TRUE

>  <SMILES>  (1574) 
N[C@@H](C(=C)C)C(=O)O

>  <INCHIKEY>  (1574) 
CJNBBWGXTPGZRW-BYPYZUCNSA-N

$$$$
Npyrid3ylmethyl-G
     RDKit          2D

 12 12  0  0  0  0  0  0  0  0999 V2000
   -1.2194   -0.1693    0.0000 N   0  0  0  0  0  0  0  0  0  0  0  0
   -0.0183   -1.0678    0.0000 C   0  0  0  0  0  0  0  0  0  0  0  0
    1.3604   -0.4769    0.0000 C   0  0  0  0  0  0  0  0  0  0  0  0
    1.5380    1.0126    0.0000 C   0  0  0  0  0  0  0  0  0  0  0  0
    2.9167    1.6035    0.0000 C   0  0  0  0  0  0  0  0  0  0  0  0
    4.1178    0.7050    0.0000 C   0  0  0  0  0  0  0  0  0  0  0  0
    3.9402   -0.7845    0.0000 N   0  0  0  0  0  0  0  0  0  0  0  0
    2.5615   -1.3754    0.0000 C   0  0  0  0  0  0  0  0  0  0  0  0
   -2.5981   -0.7603    0.0000 C   0  0  0  0  0  0  0  0  0  0  0  0
   -3.7992    0.1382    0.0000 C   0  0  0  0  0  0  0  0  0  0  0  0
   -3.6216    1.6277    0.0000 O   0  0  0  0  0  0  0  0  0  0  0  0
   -5.1779   -0.4527    0.0000 O   0  0  0  0  0  0  0  0  0  0  0  0
  1  2  1  0
  2  3  1  0
  3  4  2  0
  4  5  1  0
  5  6  2  0
  6  7  1  0
  7  8  2  0
  1  9  1  0
  9 10  1  0
 10 11  2  0
 10 12  1  0
  8  3  1  0
M  END
>  <rName>  (1575) 
Npyrid3ylmethyl-G

>  <PQ_SYMBOL>  (1575) 
Npyrid3ylmethyl-G

>  <FULL_NAME>  (1575) 
(pyridin-3-ylmethyl)glycine

>  <IUPAC_CONDENSED>  (1575) 
pyrid-3-ylmethyl-Gly

>  <IUPAC>  (1575) 
2-(((pyridin-3-yl)methyl)amino)acetic acid

>  <TYPE>  (1575) 
Backbone

>  <CLASS>  (1575) 
alpha

>  <ANALOG>  (1575) 
Gly

>  <MOL_WT>  (1575) 
166.17999999999998

>  <LOGP>  (1575) 
0.25579999999999975

>  <TPSA>  (1575) 
62.22

>  <POPULARITY>  (1575) 
13.6

>  <PROTECTED>  (1575) 
TRUE

>  <SMILES>  (1575) 
N(Cc1(cccnc1))CC(=O)O

>  <INCHIKEY>  (1575) 
FCJPXSDDZZUPQJ-UHFFFAOYSA-N

$$$$
Nva_OMe
     RDKit          2D

 10  9  0  0  0  0  0  0  0  0999 V2000
   -1.4166   -1.8843    0.0000 N   0  0  0  0  0  0  0  0  0  0  0  0
   -1.4265   -0.3844    0.0000 C   0  0  0  0  0  0  0  0  0  0  0  0
   -0.1324    0.3741    0.0000 C   0  0  0  0  0  0  0  0  0  0  0  0
    1.1716   -0.3673    0.0000 C   0  0  0  0  0  0  0  0  0  0  0  0
    2.4657    0.3912    0.0000 C   0  0  0  0  0  0  0  0  0  0  0  0
    3.7696   -0.3503    0.0000 O   0  0  0  0  0  0  0  0  0  0  0  0
    5.0637    0.4082    0.0000 C   0  0  0  0  0  0  0  0  0  0  0  0
   -2.7304    0.3571    0.0000 C   0  0  0  0  0  0  0  0  0  0  0  0
   -2.7402    1.8571    0.0000 O   0  0  0  0  0  0  0  0  0  0  0  0
   -4.0245   -0.4014    0.0000 O   0  0  0  0  0  0  0  0  0  0  0  0
  2  1  1  6
  2  3  1  0
  3  4  1  0
  4  5  1  0
  5  6  1  0
  6  7  1  0
  2  8  1  0
  8  9  2  0
  8 10  1  0
M  END
>  <rName>  (1576) 
Nva_OMe

>  <PQ_SYMBOL>  (1576) 
Nva_OMe

>  <FULL_NAME>  (1576) 
(S)-2-amino-5-methoxypentanoic acid

>  <IUPAC_CONDENSED>  (1576) 
Nva(OMe)

>  <IUPAC>  (1576) 
(2S)-2-amino-5-methoxypentanoic acid

>  <TYPE>  (1576) 
Backbone

>  <CLASS>  (1576) 
alpha

>  <ANALOG>  (1576) 
X

>  <MOL_WT>  (1576) 
147.174

>  <LOGP>  (1576) 
-0.1751000000000001

>  <TPSA>  (1576) 
72.55

>  <POPULARITY>  (1576) 
9

>  <PROTECTED>  (1576) 
TRUE

>  <SMILES>  (1576) 
N[C@@H](CCCOC)C(=O)O

>  <INCHIKEY>  (1576) 
HBSSLDFHKZLODB-YFKPBYRVSA-N

$$$$
bAla_3ScPr
     RDKit          2D

  9  9  0  0  0  0  0  0  0  0999 V2000
    0.0470   -1.7903    0.0000 N   0  0  0  0  0  0  0  0  0  0  0  0
    0.4040   -0.3334    0.0000 C   0  0  0  0  0  0  0  0  0  0  0  0
    1.8442    0.0860    0.0000 C   0  0  0  0  0  0  0  0  0  0  0  0
    3.3011   -0.2709    0.0000 C   0  0  0  0  0  0  0  0  0  0  0  0
    2.8817    1.1693    0.0000 C   0  0  0  0  0  0  0  0  0  0  0  0
   -0.6793    0.7042    0.0000 C   0  0  0  0  0  0  0  0  0  0  0  0
   -2.1195    0.2848    0.0000 C   0  0  0  0  0  0  0  0  0  0  0  0
   -2.4764   -1.1721    0.0000 O   0  0  0  0  0  0  0  0  0  0  0  0
   -3.2028    1.3224    0.0000 O   0  0  0  0  0  0  0  0  0  0  0  0
  2  1  1  6
  2  3  1  0
  3  4  1  0
  4  5  1  0
  2  6  1  0
  6  7  1  0
  7  8  2  0
  7  9  1  0
  5  3  1  0
M  END
>  <rName>  (1577) 
bAla_3ScPr

>  <PQ_SYMBOL>  (1577) 
bAla_3ScPr

>  <FULL_NAME>  (1577) 
(R)-3-amino-3-cyclopropylpropanoic acid

>  <IUPAC_CONDENSED>  (1577) 
bAla(3S-cPr)

>  <IUPAC>  (1577) 
(3R)-3-amino-3-cyclopropylpropanoic acid

>  <TYPE>  (1577) 
Backbone

>  <CLASS>  (1577) 
beta

>  <ANALOG>  (1577) 
X

>  <MOL_WT>  (1577) 
129.15900000000002

>  <LOGP>  (1577) 
0.19839999999999985

>  <TPSA>  (1577) 
63.32000000000001

>  <POPULARITY>  (1577) 
7

>  <PROTECTED>  (1577) 
TRUE

>  <SMILES>  (1577) 
N[C@@H](C1(CC1))CC(=O)O

>  <INCHIKEY>  (1577) 
IHWFMMMLMIDKCB-RXMQYKEDSA-N

$$$$
Phe_3F_4Me
     RDKit          2D

 14 14  0  0  0  0  0  0  0  0999 V2000
   -2.0094    1.6916    0.0000 N   0  0  0  0  0  0  0  0  0  0  0  0
   -2.3243    0.2250    0.0000 C   0  0  0  0  0  0  0  0  0  0  0  0
   -1.2116   -0.7809    0.0000 C   0  0  0  0  0  0  0  0  0  0  0  0
    0.2159   -0.3203    0.0000 C   0  0  0  0  0  0  0  0  0  0  0  0
    0.5308    1.1463    0.0000 C   0  0  0  0  0  0  0  0  0  0  0  0
    1.9583    1.6069    0.0000 C   0  0  0  0  0  0  0  0  0  0  0  0
    3.0710    0.6009    0.0000 C   0  0  0  0  0  0  0  0  0  0  0  0
    4.4985    1.0615    0.0000 C   0  0  0  0  0  0  0  0  0  0  0  0
    2.7561   -0.8657    0.0000 C   0  0  0  0  0  0  0  0  0  0  0  0
    3.8688   -1.8716    0.0000 F   0  0  0  0  0  0  0  0  0  0  0  0
    1.3286   -1.3263    0.0000 C   0  0  0  0  0  0  0  0  0  0  0  0
   -3.7518   -0.2356    0.0000 C   0  0  0  0  0  0  0  0  0  0  0  0
   -4.0666   -1.7022    0.0000 O   0  0  0  0  0  0  0  0  0  0  0  0
   -4.8644    0.7704    0.0000 O   0  0  0  0  0  0  0  0  0  0  0  0
  2  1  1  1
  2  3  1  0
  3  4  1  0
  4  5  1  0
  5  6  2  0
  6  7  1  0
  7  8  1  0
  7  9  2  0
  9 10  1  0
  9 11  1  0
  2 12  1  0
 12 13  2  0
 12 14  1  0
 11  4  2  0
M  END
>  <rName>  (1578) 
Phe_3F_4Me

>  <PQ_SYMBOL>  (1578) 
Phe_3F_4Me

>  <FULL_NAME>  (1578) 
(S)-2-amino-3-(3-fluoro-4-methylphenyl)propanoic acid

>  <IUPAC_CONDENSED>  (1578) 
Phe(3-F,4-Me)

>  <IUPAC>  (1578) 
(2S)-2-amino-3-(3-fluoro-4-methylphenyl)propanoic acid

>  <TYPE>  (1578) 
Backbone

>  <CLASS>  (1578) 
alpha

>  <ANALOG>  (1578) 
Phe

>  <MOL_WT>  (1578) 
197.20899999999997

>  <LOGP>  (1578) 
1.0885200000000002

>  <TPSA>  (1578) 
63.32000000000001

>  <POPULARITY>  (1578) 
4.6

>  <PROTECTED>  (1578) 
TRUE

>  <SMILES>  (1578) 
N[C@@H](Cc1(ccc(C)c(F)c1))C(=O)O

>  <INCHIKEY>  (1578) 
MUTNDIMQYVVGMX-VIFPVBQESA-N

$$$$
D-Phe_2Me_4OMe
     RDKit          2D

 15 15  0  0  0  0  0  0  0  0999 V2000
   -2.1784    1.7334    0.0000 N   0  0  0  0  0  0  0  0  0  0  0  0
   -2.6284    0.3024    0.0000 C   0  0  0  0  0  0  0  0  0  0  0  0
   -1.6142   -0.8027    0.0000 C   0  0  0  0  0  0  0  0  0  0  0  0
   -0.1500   -0.4770    0.0000 C   0  0  0  0  0  0  0  0  0  0  0  0
    0.3000    0.9539    0.0000 C   0  0  0  0  0  0  0  0  0  0  0  0
    1.7642    1.2797    0.0000 C   0  0  0  0  0  0  0  0  0  0  0  0
    2.7784    0.1745    0.0000 C   0  0  0  0  0  0  0  0  0  0  0  0
    4.2426    0.5003    0.0000 O   0  0  0  0  0  0  0  0  0  0  0  0
    4.6926    1.9312    0.0000 C   0  0  0  0  0  0  0  0  0  0  0  0
    2.3284   -1.2564    0.0000 C   0  0  0  0  0  0  0  0  0  0  0  0
    3.3426   -2.3615    0.0000 C   0  0  0  0  0  0  0  0  0  0  0  0
    0.8642   -1.5821    0.0000 C   0  0  0  0  0  0  0  0  0  0  0  0
   -4.0926   -0.0233    0.0000 C   0  0  0  0  0  0  0  0  0  0  0  0
   -4.5426   -1.4542    0.0000 O   0  0  0  0  0  0  0  0  0  0  0  0
   -5.1068    1.0819    0.0000 O   0  0  0  0  0  0  0  0  0  0  0  0
  2  1  1  6
  2  3  1  0
  3  4  1  0
  4  5  1  0
  5  6  2  0
  6  7  1  0
  7  8  1  0
  8  9  1  0
  7 10  2  0
 10 11  1  0
 10 12  1  0
  2 13  1  0
 13 14  2  0
 13 15  1  0
 12  4  2  0
M  END
>  <rName>  (1579) 
D-Phe_2Me_4OMe

>  <PQ_SYMBOL>  (1579) 
D-Phe_2Me_4OMe

>  <FULL_NAME>  (1579) 
(R)-2-amino-3-(4-methoxy-3-methylphenyl)propanoic acid

>  <IUPAC_CONDENSED>  (1579) 
D-Phe(2-Me,4-OMe)

>  <IUPAC>  (1579) 
(2R)-2-amino-3-(4-methoxy-3-methylphenyl)propanoic acid

>  <TYPE>  (1579) 
Backbone

>  <CLASS>  (1579) 
alpha

>  <ANALOG>  (1579) 
Tyr

>  <MOL_WT>  (1579) 
209.24499999999998

>  <LOGP>  (1579) 
0.9580199999999999

>  <TPSA>  (1579) 
72.55

>  <POPULARITY>  (1579) 
4.7

>  <PROTECTED>  (1579) 
TRUE

>  <SMILES>  (1579) 
N[C@H](Cc1(ccc(OC)c(C)c1))C(=O)O

>  <INCHIKEY>  (1579) 
DXGNDDYTXLSPCE-SECBINFHSA-N

$$$$
Phe_2Me_4OMe
     RDKit          2D

 15 15  0  0  0  0  0  0  0  0999 V2000
   -2.1784    1.7334    0.0000 N   0  0  0  0  0  0  0  0  0  0  0  0
   -2.6284    0.3024    0.0000 C   0  0  0  0  0  0  0  0  0  0  0  0
   -1.6142   -0.8027    0.0000 C   0  0  0  0  0  0  0  0  0  0  0  0
   -0.1500   -0.4770    0.0000 C   0  0  0  0  0  0  0  0  0  0  0  0
    0.3000    0.9539    0.0000 C   0  0  0  0  0  0  0  0  0  0  0  0
    1.7642    1.2797    0.0000 C   0  0  0  0  0  0  0  0  0  0  0  0
    2.7784    0.1745    0.0000 C   0  0  0  0  0  0  0  0  0  0  0  0
    4.2426    0.5003    0.0000 O   0  0  0  0  0  0  0  0  0  0  0  0
    4.6926    1.9312    0.0000 C   0  0  0  0  0  0  0  0  0  0  0  0
    2.3284   -1.2564    0.0000 C   0  0  0  0  0  0  0  0  0  0  0  0
    3.3426   -2.3615    0.0000 C   0  0  0  0  0  0  0  0  0  0  0  0
    0.8642   -1.5821    0.0000 C   0  0  0  0  0  0  0  0  0  0  0  0
   -4.0926   -0.0233    0.0000 C   0  0  0  0  0  0  0  0  0  0  0  0
   -4.5426   -1.4542    0.0000 O   0  0  0  0  0  0  0  0  0  0  0  0
   -5.1068    1.0819    0.0000 O   0  0  0  0  0  0  0  0  0  0  0  0
  2  1  1  1
  2  3  1  0
  3  4  1  0
  4  5  1  0
  5  6  2  0
  6  7  1  0
  7  8  1  0
  8  9  1  0
  7 10  2  0
 10 11  1  0
 10 12  1  0
  2 13  1  0
 13 14  2  0
 13 15  1  0
 12  4  2  0
M  END
>  <rName>  (1580) 
Phe_2Me_4OMe

>  <PQ_SYMBOL>  (1580) 
Phe_2Me_4OMe

>  <FULL_NAME>  (1580) 
(S)-2-amino-3-(4-methoxy-3-methylphenyl)propanoic acid

>  <IUPAC_CONDENSED>  (1580) 
Phe(2-Me,4-OMe)

>  <IUPAC>  (1580) 
(2S)-2-amino-3-(4-methoxy-3-methylphenyl)propanoic acid

>  <TYPE>  (1580) 
Backbone

>  <CLASS>  (1580) 
alpha

>  <ANALOG>  (1580) 
Tyr

>  <MOL_WT>  (1580) 
209.24499999999998

>  <LOGP>  (1580) 
0.9580199999999999

>  <TPSA>  (1580) 
72.55

>  <POPULARITY>  (1580) 
6.7

>  <PROTECTED>  (1580) 
TRUE

>  <SMILES>  (1580) 
N[C@@H](Cc1(ccc(OC)c(C)c1))C(=O)O

>  <INCHIKEY>  (1580) 
DXGNDDYTXLSPCE-VIFPVBQESA-N

$$$$
Phe_3Cl_4OMe
     RDKit          2D

 15 15  0  0  0  0  0  0  0  0999 V2000
   -2.3798    1.6931    0.0000 N   0  0  0  0  0  0  0  0  0  0  0  0
   -2.6978    0.2272    0.0000 C   0  0  0  0  0  0  0  0  0  0  0  0
   -1.5874   -0.7812    0.0000 C   0  0  0  0  0  0  0  0  0  0  0  0
   -0.1588   -0.3237    0.0000 C   0  0  0  0  0  0  0  0  0  0  0  0
    0.1592    1.1422    0.0000 C   0  0  0  0  0  0  0  0  0  0  0  0
    1.5877    1.5997    0.0000 C   0  0  0  0  0  0  0  0  0  0  0  0
    2.6982    0.5914    0.0000 C   0  0  0  0  0  0  0  0  0  0  0  0
    4.1267    1.0489    0.0000 O   0  0  0  0  0  0  0  0  0  0  0  0
    5.2372    0.0405    0.0000 C   0  0  0  0  0  0  0  0  0  0  0  0
    2.3802   -0.8745    0.0000 C   0  0  0  0  0  0  0  0  0  0  0  0
    3.4906   -1.8829    0.0000 Cl  0  0  0  0  0  0  0  0  0  0  0  0
    0.9516   -1.3321    0.0000 C   0  0  0  0  0  0  0  0  0  0  0  0
   -4.1264   -0.2303    0.0000 C   0  0  0  0  0  0  0  0  0  0  0  0
   -4.4444   -1.6962    0.0000 O   0  0  0  0  0  0  0  0  0  0  0  0
   -5.2369    0.7780    0.0000 O   0  0  0  0  0  0  0  0  0  0  0  0
  2  1  1  1
  2  3  1  0
  3  4  1  0
  4  5  1  0
  5  6  2  0
  6  7  1  0
  7  8  1  0
  8  9  1  0
  7 10  2  0
 10 11  1  0
 10 12  1  0
  2 13  1  0
 13 14  2  0
 13 15  1  0
 12  4  2  0
M  END
>  <rName>  (1581) 
Phe_3Cl_4OMe

>  <PQ_SYMBOL>  (1581) 
Phe_3Cl_4OMe

>  <FULL_NAME>  (1581) 
(S)-2-amino-3-(3-chloro-4-methoxyphenyl)propanoic acid

>  <IUPAC_CONDENSED>  (1581) 
Phe(3-Cl,4-OMe)

>  <IUPAC>  (1581) 
(2S)-2-amino-3-(3-chloro-4-methoxyphenyl)propanoic acid

>  <TYPE>  (1581) 
Backbone

>  <CLASS>  (1581) 
alpha

>  <ANALOG>  (1581) 
Tyr

>  <MOL_WT>  (1581) 
229.66299999999998

>  <LOGP>  (1581) 
1.303

>  <TPSA>  (1581) 
72.55

>  <POPULARITY>  (1581) 
6.3

>  <PROTECTED>  (1581) 
TRUE

>  <SMILES>  (1581) 
N[C@@H](Cc1(ccc(OC)c(Cl)c1))C(=O)O

>  <INCHIKEY>  (1581) 
FVFCTFGTAWTEIF-QMMMGPOBSA-N

$$$$
Phe_3Cl_4Me
     RDKit          2D

 14 14  0  0  0  0  0  0  0  0999 V2000
   -2.0094    1.6916    0.0000 N   0  0  0  0  0  0  0  0  0  0  0  0
   -2.3243    0.2250    0.0000 C   0  0  0  0  0  0  0  0  0  0  0  0
   -1.2116   -0.7809    0.0000 C   0  0  0  0  0  0  0  0  0  0  0  0
    0.2159   -0.3203    0.0000 C   0  0  0  0  0  0  0  0  0  0  0  0
    0.5308    1.1463    0.0000 C   0  0  0  0  0  0  0  0  0  0  0  0
    1.9583    1.6069    0.0000 C   0  0  0  0  0  0  0  0  0  0  0  0
    3.0710    0.6009    0.0000 C   0  0  0  0  0  0  0  0  0  0  0  0
    4.4985    1.0615    0.0000 C   0  0  0  0  0  0  0  0  0  0  0  0
    2.7561   -0.8657    0.0000 C   0  0  0  0  0  0  0  0  0  0  0  0
    3.8688   -1.8716    0.0000 Cl  0  0  0  0  0  0  0  0  0  0  0  0
    1.3286   -1.3263    0.0000 C   0  0  0  0  0  0  0  0  0  0  0  0
   -3.7518   -0.2356    0.0000 C   0  0  0  0  0  0  0  0  0  0  0  0
   -4.0666   -1.7022    0.0000 O   0  0  0  0  0  0  0  0  0  0  0  0
   -4.8644    0.7704    0.0000 O   0  0  0  0  0  0  0  0  0  0  0  0
  2  1  1  1
  2  3  1  0
  3  4  1  0
  4  5  1  0
  5  6  2  0
  6  7  1  0
  7  8  1  0
  7  9  2  0
  9 10  1  0
  9 11  1  0
  2 12  1  0
 12 13  2  0
 12 14  1  0
 11  4  2  0
M  END
>  <rName>  (1582) 
Phe_3Cl_4Me

>  <PQ_SYMBOL>  (1582) 
Phe_3Cl_4Me

>  <FULL_NAME>  (1582) 
(S)-2-amino-3-(3-chloro-4-methylphenyl)propanoic acid

>  <IUPAC_CONDENSED>  (1582) 
Phe(3-Cl,4-Me)

>  <IUPAC>  (1582) 
(2S)-2-amino-3-(3-chloro-4-methylphenyl)propanoic acid

>  <TYPE>  (1582) 
Backbone

>  <CLASS>  (1582) 
alpha

>  <ANALOG>  (1582) 
Phe

>  <MOL_WT>  (1582) 
213.664

>  <LOGP>  (1582) 
1.6028200000000001

>  <TPSA>  (1582) 
63.32000000000001

>  <POPULARITY>  (1582) 
4.2

>  <PROTECTED>  (1582) 
TRUE

>  <SMILES>  (1582) 
N[C@@H](Cc1(ccc(C)c(Cl)c1))C(=O)O

>  <INCHIKEY>  (1582) 
AMMKDLMOXARMLH-VIFPVBQESA-N

$$$$
Nle_56dehydro_5Me
     RDKit          2D

 10  9  0  0  0  0  0  0  0  0999 V2000
    1.2717    1.9622    0.0000 N   0  0  0  0  0  0  0  0  0  0  0  0
    1.1946    0.4642    0.0000 C   0  0  0  0  0  0  0  0  0  0  0  0
   -0.1413   -0.2180    0.0000 C   0  0  0  0  0  0  0  0  0  0  0  0
   -1.4001    0.5978    0.0000 C   0  0  0  0  0  0  0  0  0  0  0  0
   -2.7359   -0.0845    0.0000 C   0  0  0  0  0  0  0  0  0  0  0  0
   -3.9947    0.7313    0.0000 C   0  0  0  0  0  0  0  0  0  0  0  0
   -2.8131   -1.5825    0.0000 C   0  0  0  0  0  0  0  0  0  0  0  0
    2.4533   -0.3516    0.0000 C   0  0  0  0  0  0  0  0  0  0  0  0
    2.3762   -1.8496    0.0000 O   0  0  0  0  0  0  0  0  0  0  0  0
    3.7892    0.3306    0.0000 O   0  0  0  0  0  0  0  0  0  0  0  0
  2  1  1  6
  2  3  1  0
  3  4  1  0
  4  5  1  0
  5  6  2  0
  5  7  1  0
  2  8  1  0
  8  9  2  0
  8 10  1  0
M  END
>  <rName>  (1583) 
Nle_56dehydro_5Me

>  <PQ_SYMBOL>  (1583) 
Nle_56dehydro_5Me

>  <FULL_NAME>  (1583) 
(S)-2-amino-5-methylhex-5-enoic acid

>  <IUPAC_CONDENSED>  (1583) 
Nle(5,6-dehydro,5-Me)

>  <IUPAC>  (1583) 
(2S)-2-amino-5-methylhex-5-enoic acid

>  <TYPE>  (1583) 
Backbone

>  <CLASS>  (1583) 
alpha

>  <ANALOG>  (1583) 
Leu

>  <MOL_WT>  (1583) 
143.186

>  <LOGP>  (1583) 
0.7545999999999999

>  <TPSA>  (1583) 
63.32000000000001

>  <POPULARITY>  (1583) 
8.2

>  <PROTECTED>  (1583) 
TRUE

>  <SMILES>  (1583) 
N[C@@H](CCC(=C)C)C(=O)O

>  <INCHIKEY>  (1583) 
OYGZAERTQAIZGU-LURJTMIESA-N

$$$$
D-Nle_56dehydro_5Me
     RDKit          2D

 10  9  0  0  0  0  0  0  0  0999 V2000
    1.2717    1.9622    0.0000 N   0  0  0  0  0  0  0  0  0  0  0  0
    1.1946    0.4642    0.0000 C   0  0  0  0  0  0  0  0  0  0  0  0
   -0.1413   -0.2180    0.0000 C   0  0  0  0  0  0  0  0  0  0  0  0
   -1.4001    0.5978    0.0000 C   0  0  0  0  0  0  0  0  0  0  0  0
   -2.7359   -0.0845    0.0000 C   0  0  0  0  0  0  0  0  0  0  0  0
   -3.9947    0.7313    0.0000 C   0  0  0  0  0  0  0  0  0  0  0  0
   -2.8131   -1.5825    0.0000 C   0  0  0  0  0  0  0  0  0  0  0  0
    2.4533   -0.3516    0.0000 C   0  0  0  0  0  0  0  0  0  0  0  0
    2.3762   -1.8496    0.0000 O   0  0  0  0  0  0  0  0  0  0  0  0
    3.7892    0.3306    0.0000 O   0  0  0  0  0  0  0  0  0  0  0  0
  2  1  1  1
  2  3  1  0
  3  4  1  0
  4  5  1  0
  5  6  2  0
  5  7  1  0
  2  8  1  0
  8  9  2  0
  8 10  1  0
M  END
>  <rName>  (1584) 
D-Nle_56dehydro_5Me

>  <PQ_SYMBOL>  (1584) 
D-Nle_56dehydro_5Me

>  <FULL_NAME>  (1584) 
(R)-2-amino-5-methylhex-5-enoic acid

>  <IUPAC_CONDENSED>  (1584) 
D-Nle(5,6-dehydro,5-Me)

>  <IUPAC>  (1584) 
(2R)-2-amino-5-methylhex-5-enoic acid

>  <TYPE>  (1584) 
Backbone

>  <CLASS>  (1584) 
alpha

>  <ANALOG>  (1584) 
Leu

>  <MOL_WT>  (1584) 
143.186

>  <LOGP>  (1584) 
0.7545999999999999

>  <TPSA>  (1584) 
63.32000000000001

>  <POPULARITY>  (1584) 
7.4

>  <PROTECTED>  (1584) 
TRUE

>  <SMILES>  (1584) 
N[C@H](CCC(=C)C)C(=O)O

>  <INCHIKEY>  (1584) 
OYGZAERTQAIZGU-ZCFIWIBFSA-N

$$$$
D-Abu_cPr
     RDKit          2D

 10 10  0  0  0  0  0  0  0  0999 V2000
   -1.4768   -1.9348    0.0000 N   0  0  0  0  0  0  0  0  0  0  0  0
   -1.3184   -0.4432    0.0000 C   0  0  0  0  0  0  0  0  0  0  0  0
    0.0526    0.1655    0.0000 C   0  0  0  0  0  0  0  0  0  0  0  0
    1.2652   -0.7175    0.0000 C   0  0  0  0  0  0  0  0  0  0  0  0
    2.6361   -0.1088    0.0000 C   0  0  0  0  0  0  0  0  0  0  0  0
    4.1277   -0.2672    0.0000 C   0  0  0  0  0  0  0  0  0  0  0  0
    3.5191    1.1037    0.0000 C   0  0  0  0  0  0  0  0  0  0  0  0
   -2.5310    0.4398    0.0000 C   0  0  0  0  0  0  0  0  0  0  0  0
   -2.3726    1.9314    0.0000 O   0  0  0  0  0  0  0  0  0  0  0  0
   -3.9019   -0.1689    0.0000 O   0  0  0  0  0  0  0  0  0  0  0  0
  2  1  1  1
  2  3  1  0
  3  4  1  0
  4  5  1  0
  5  6  1  0
  6  7  1  0
  2  8  1  0
  8  9  2  0
  8 10  1  0
  7  5  1  0
M  END
>  <rName>  (1585) 
D-Abu_cPr

>  <PQ_SYMBOL>  (1585) 
D-Abu_cPr

>  <FULL_NAME>  (1585) 
(R)-2-amino-4-cyclopropylbutanoic acid

>  <IUPAC_CONDENSED>  (1585) 
D-Abu(cPr)

>  <IUPAC>  (1585) 
(2R)-2-amino-4-cyclopropylbutanoic acid

>  <TYPE>  (1585) 
Backbone

>  <CLASS>  (1585) 
alpha

>  <ANALOG>  (1585) 
Ala

>  <MOL_WT>  (1585) 
143.186

>  <LOGP>  (1585) 
0.5884999999999998

>  <TPSA>  (1585) 
63.32000000000001

>  <POPULARITY>  (1585) 
8.1

>  <PROTECTED>  (1585) 
TRUE

>  <SMILES>  (1585) 
N[C@H](CCC1(CC1))C(=O)O

>  <INCHIKEY>  (1585) 
XQBROTNHOLWMJR-ZCFIWIBFSA-N

$$$$
Hse_allyl
     RDKit          2D

 11 10  0  0  0  0  0  0  0  0999 V2000
    1.9630   -1.8884    0.0000 N   0  0  0  0  0  0  0  0  0  0  0  0
    1.9989   -0.3888    0.0000 C   0  0  0  0  0  0  0  0  0  0  0  0
    0.7181    0.3920    0.0000 C   0  0  0  0  0  0  0  0  0  0  0  0
   -0.5985   -0.3267    0.0000 C   0  0  0  0  0  0  0  0  0  0  0  0
   -1.8792    0.4541    0.0000 O   0  0  0  0  0  0  0  0  0  0  0  0
   -3.1958   -0.2646    0.0000 C   0  0  0  0  0  0  0  0  0  0  0  0
   -4.4765    0.5162    0.0000 C   0  0  0  0  0  0  0  0  0  0  0  0
   -5.7931   -0.2025    0.0000 C   0  0  0  0  0  0  0  0  0  0  0  0
    3.3155    0.3299    0.0000 C   0  0  0  0  0  0  0  0  0  0  0  0
    3.3513    1.8295    0.0000 O   0  0  0  0  0  0  0  0  0  0  0  0
    4.5962   -0.4509    0.0000 O   0  0  0  0  0  0  0  0  0  0  0  0
  2  1  1  1
  2  3  1  0
  3  4  1  0
  4  5  1  0
  5  6  1  0
  6  7  1  0
  7  8  2  0
  2  9  1  0
  9 10  2  0
  9 11  1  0
M  END
>  <rName>  (1586) 
Hse_allyl

>  <PQ_SYMBOL>  (1586) 
Hse_allyl

>  <FULL_NAME>  (1586) 
O-allyl-L-homoserine

>  <IUPAC_CONDENSED>  (1586) 
Hse(allyl)

>  <IUPAC>  (1586) 
(2S)-2-amino-4-((prop-2-en-1-yl)oxy)butanoic acid

>  <TYPE>  (1586) 
Backbone

>  <CLASS>  (1586) 
alpha

>  <ANALOG>  (1586) 
Ser

>  <MOL_WT>  (1586) 
159.185

>  <LOGP>  (1586) 
-0.009000000000000397

>  <TPSA>  (1586) 
72.55

>  <POPULARITY>  (1586) 
5.7

>  <PROTECTED>  (1586) 
TRUE

>  <SMILES>  (1586) 
N[C@@H](CCOCC=C)C(=O)O

>  <INCHIKEY>  (1586) 
PWVANPLCFRYAIN-LURJTMIESA-N

$$$$
D-hLeu_Me
     RDKit          2D

 11 10  0  0  0  0  0  0  0  0999 V2000
    1.5275    1.9644    0.0000 N   0  0  0  0  0  0  0  0  0  0  0  0
    1.4450    0.4666    0.0000 C   0  0  0  0  0  0  0  0  0  0  0  0
    0.1067   -0.2107    0.0000 C   0  0  0  0  0  0  0  0  0  0  0  0
   -1.1491    0.6096    0.0000 C   0  0  0  0  0  0  0  0  0  0  0  0
   -2.4875   -0.0678    0.0000 C   0  0  0  0  0  0  0  0  0  0  0  0
   -3.1649    1.2706    0.0000 C   0  0  0  0  0  0  0  0  0  0  0  0
   -1.8101   -1.4061    0.0000 C   0  0  0  0  0  0  0  0  0  0  0  0
   -3.8258   -0.7452    0.0000 C   0  0  0  0  0  0  0  0  0  0  0  0
    2.7008   -0.3537    0.0000 C   0  0  0  0  0  0  0  0  0  0  0  0
    2.6183   -1.8514    0.0000 O   0  0  0  0  0  0  0  0  0  0  0  0
    4.0391    0.3237    0.0000 O   0  0  0  0  0  0  0  0  0  0  0  0
  2  1  1  1
  2  3  1  0
  3  4  1  0
  4  5  1  0
  5  6  1  0
  5  7  1  0
  5  8  1  0
  2  9  1  0
  9 10  2  0
  9 11  1  0
M  END
>  <rName>  (1587) 
D-hLeu_Me

>  <PQ_SYMBOL>  (1587) 
D-hLeu_Me

>  <FULL_NAME>  (1587) 
(R)-2-amino-5,5-dimethylhexanoic acid

>  <IUPAC_CONDENSED>  (1587) 
D-hLeu(Me)

>  <IUPAC>  (1587) 
(2R)-2-amino-5,5-dimethylhexanoic acid

>  <TYPE>  (1587) 
Backbone

>  <CLASS>  (1587) 
alpha

>  <ANALOG>  (1587) 
Leu

>  <MOL_WT>  (1587) 
159.22899999999998

>  <LOGP>  (1587) 
1.2245999999999997

>  <TPSA>  (1587) 
63.32000000000001

>  <POPULARITY>  (1587) 
6.6

>  <PROTECTED>  (1587) 
TRUE

>  <SMILES>  (1587) 
N[C@H](CCC(C)(C)C)C(=O)O

>  <INCHIKEY>  (1587) 
HMQBHFUPSBOCOE-ZCFIWIBFSA-N

$$$$
D-hPhe_4CF3
     RDKit          2D

 17 17  0  0  0  0  0  0  0  0999 V2000
   -4.3296   -1.7850    0.0000 N   0  0  0  0  0  0  0  0  0  0  0  0
   -3.9152   -0.3434    0.0000 C   0  0  0  0  0  0  0  0  0  0  0  0
   -2.4595    0.0185    0.0000 C   0  0  0  0  0  0  0  0  0  0  0  0
   -1.4182   -1.0612    0.0000 C   0  0  0  0  0  0  0  0  0  0  0  0
    0.0375   -0.6993    0.0000 C   0  0  0  0  0  0  0  0  0  0  0  0
    0.4519    0.7423    0.0000 C   0  0  0  0  0  0  0  0  0  0  0  0
    1.9076    1.1041    0.0000 C   0  0  0  0  0  0  0  0  0  0  0  0
    2.9489    0.0244    0.0000 C   0  0  0  0  0  0  0  0  0  0  0  0
    2.5344   -1.4172    0.0000 C   0  0  0  0  0  0  0  0  0  0  0  0
    1.0787   -1.7791    0.0000 C   0  0  0  0  0  0  0  0  0  0  0  0
    4.4046    0.3863    0.0000 C   0  0  0  0  0  0  0  0  0  0  0  0
    5.8602    0.7481    0.0000 F   0  0  0  0  0  0  0  0  0  0  0  0
    4.7664   -1.0694    0.0000 F   0  0  0  0  0  0  0  0  0  0  0  0
    4.0427    1.8420    0.0000 F   0  0  0  0  0  0  0  0  0  0  0  0
   -4.9564    0.7364    0.0000 C   0  0  0  0  0  0  0  0  0  0  0  0
   -4.5419    2.1780    0.0000 O   0  0  0  0  0  0  0  0  0  0  0  0
   -6.4121    0.3745    0.0000 O   0  0  0  0  0  0  0  0  0  0  0  0
  2  1  1  1
  2  3  1  0
  3  4  1  0
  4  5  1  0
  5  6  1  0
  6  7  2  0
  7  8  1  0
  8  9  2  0
  9 10  1  0
  8 11  1  0
 11 12  1  0
 11 13  1  0
 11 14  1  0
  2 15  1  0
 15 16  2  0
 15 17  1  0
 10  5  2  0
M  END
>  <rName>  (1588) 
D-hPhe_4CF3

>  <PQ_SYMBOL>  (1588) 
D-hPhe_4CF3

>  <FULL_NAME>  (1588) 
(R)-2-amino-4-(4-(trifluoromethyl)phenyl)butanoic acid

>  <IUPAC_CONDENSED>  (1588) 
D-hPhe(4-CF3)

>  <IUPAC>  (1588) 
(2R)-2-amino-4-(4-(trifluoromethyl)phenyl)butanoic acid

>  <TYPE>  (1588) 
Backbone

>  <CLASS>  (1588) 
alpha

>  <ANALOG>  (1588) 
Phe

>  <MOL_WT>  (1588) 
247.21599999999995

>  <LOGP>  (1588) 
2.0499

>  <TPSA>  (1588) 
63.32000000000001

>  <POPULARITY>  (1588) 
4.7

>  <PROTECTED>  (1588) 
TRUE

>  <SMILES>  (1588) 
N[C@H](CCc1(ccc(cc1)C(F)(F)F))C(=O)O

>  <INCHIKEY>  (1588) 
VOINSBLLXKDEJC-SECBINFHSA-N

$$$$
hPhe_26diF
     RDKit          2D

 15 15  0  0  0  0  0  0  0  0999 V2000
   -2.7730   -2.0349    0.0000 N   0  0  0  0  0  0  0  0  0  0  0  0
   -2.5947   -0.5455    0.0000 C   0  0  0  0  0  0  0  0  0  0  0  0
   -1.2157    0.0448    0.0000 C   0  0  0  0  0  0  0  0  0  0  0  0
   -0.0150   -0.8543    0.0000 C   0  0  0  0  0  0  0  0  0  0  0  0
    1.3639   -0.2640    0.0000 C   0  0  0  0  0  0  0  0  0  0  0  0
    1.5422    1.2254    0.0000 C   0  0  0  0  0  0  0  0  0  0  0  0
    0.3415    2.1245    0.0000 F   0  0  0  0  0  0  0  0  0  0  0  0
    2.9212    1.8157    0.0000 C   0  0  0  0  0  0  0  0  0  0  0  0
    4.1219    0.9166    0.0000 C   0  0  0  0  0  0  0  0  0  0  0  0
    3.9436   -0.5727    0.0000 C   0  0  0  0  0  0  0  0  0  0  0  0
    2.5646   -1.1630    0.0000 C   0  0  0  0  0  0  0  0  0  0  0  0
    2.3864   -2.6524    0.0000 F   0  0  0  0  0  0  0  0  0  0  0  0
   -3.7954    0.3536    0.0000 C   0  0  0  0  0  0  0  0  0  0  0  0
   -3.6171    1.8429    0.0000 O   0  0  0  0  0  0  0  0  0  0  0  0
   -5.1744   -0.2367    0.0000 O   0  0  0  0  0  0  0  0  0  0  0  0
  2  1  1  6
  2  3  1  0
  3  4  1  0
  4  5  1  0
  5  6  2  0
  6  7  1  0
  6  8  1  0
  8  9  2  0
  9 10  1  0
 10 11  2  0
 11 12  1  0
  2 13  1  0
 13 14  2  0
 13 15  1  0
 11  5  1  0
M  END
>  <rName>  (1589) 
hPhe_26diF

>  <PQ_SYMBOL>  (1589) 
hPhe_26diF

>  <FULL_NAME>  (1589) 
(S)-2-amino-4-(2,6-difluorophenyl)butanoic acid

>  <IUPAC_CONDENSED>  (1589) 
hPhe(2,6-diF)

>  <IUPAC>  (1589) 
(2S)-2-amino-4-(2,6-difluorophenyl)butanoic acid

>  <TYPE>  (1589) 
Backbone

>  <CLASS>  (1589) 
alpha

>  <ANALOG>  (1589) 
Phe

>  <MOL_WT>  (1589) 
215.19899999999998

>  <LOGP>  (1589) 
1.3093

>  <TPSA>  (1589) 
63.32000000000001

>  <POPULARITY>  (1589) 
5

>  <PROTECTED>  (1589) 
TRUE

>  <SMILES>  (1589) 
N[C@@H](CCc1(c(F)cccc1F))C(=O)O

>  <INCHIKEY>  (1589) 
OWSJVBLJVRUDJX-VIFPVBQESA-N

$$$$
Phe_2OMe_5Br
     RDKit          2D

 15 15  0  0  0  0  0  0  0  0999 V2000
   -1.8812    1.8031    0.0000 N   0  0  0  0  0  0  0  0  0  0  0  0
   -2.1410    0.3258    0.0000 C   0  0  0  0  0  0  0  0  0  0  0  0
   -0.9915   -0.6379    0.0000 C   0  0  0  0  0  0  0  0  0  0  0  0
    0.4178   -0.1243    0.0000 C   0  0  0  0  0  0  0  0  0  0  0  0
    0.6776    1.3531    0.0000 C   0  0  0  0  0  0  0  0  0  0  0  0
    2.0870    1.8667    0.0000 C   0  0  0  0  0  0  0  0  0  0  0  0
    2.3468    3.3440    0.0000 Br  0  0  0  0  0  0  0  0  0  0  0  0
    3.2364    0.9030    0.0000 C   0  0  0  0  0  0  0  0  0  0  0  0
    2.9766   -0.5743    0.0000 C   0  0  0  0  0  0  0  0  0  0  0  0
    1.5673   -1.0879    0.0000 C   0  0  0  0  0  0  0  0  0  0  0  0
    1.3074   -2.5653    0.0000 O   0  0  0  0  0  0  0  0  0  0  0  0
    2.4569   -3.5290    0.0000 C   0  0  0  0  0  0  0  0  0  0  0  0
   -3.5503   -0.1878    0.0000 C   0  0  0  0  0  0  0  0  0  0  0  0
   -3.8102   -1.6651    0.0000 O   0  0  0  0  0  0  0  0  0  0  0  0
   -4.6998    0.7759    0.0000 O   0  0  0  0  0  0  0  0  0  0  0  0
  2  1  1  1
  2  3  1  0
  3  4  1  0
  4  5  1  0
  5  6  2  0
  6  7  1  0
  6  8  1  0
  8  9  2  0
  9 10  1  0
 10 11  1  0
 11 12  1  0
  2 13  1  0
 13 14  2  0
 13 15  1  0
 10  4  2  0
M  END
>  <rName>  (1590) 
Phe_2OMe_5Br

>  <PQ_SYMBOL>  (1590) 
Phe_2OMe_5Br

>  <FULL_NAME>  (1590) 
(S)-2-amino-3-(5-bromo-2-methoxyphenyl)propanoic acid

>  <IUPAC_CONDENSED>  (1590) 
Phe(2-OMe,5-Br)

>  <IUPAC>  (1590) 
(2S)-2-amino-3-(5-bromo-2-methoxyphenyl)propanoic acid

>  <TYPE>  (1590) 
Backbone

>  <CLASS>  (1590) 
alpha

>  <ANALOG>  (1590) 
Tyr

>  <MOL_WT>  (1590) 
274.114

>  <LOGP>  (1590) 
1.4121000000000001

>  <TPSA>  (1590) 
72.55

>  <POPULARITY>  (1590) 
3.1

>  <PROTECTED>  (1590) 
TRUE

>  <SMILES>  (1590) 
N[C@@H](Cc1(cc(Br)ccc1OC))C(=O)O

>  <INCHIKEY>  (1590) 
REWQRRCVTMPNHM-QMMMGPOBSA-N

$$$$
Phe_2Cl_5Br
     RDKit          2D

 14 14  0  0  0  0  0  0  0  0999 V2000
   -1.4552    1.7882    0.0000 N   0  0  0  0  0  0  0  0  0  0  0  0
   -1.9325    0.3661    0.0000 C   0  0  0  0  0  0  0  0  0  0  0  0
   -0.9397   -0.7583    0.0000 C   0  0  0  0  0  0  0  0  0  0  0  0
    0.5305   -0.4606    0.0000 C   0  0  0  0  0  0  0  0  0  0  0  0
    1.0078    0.9614    0.0000 C   0  0  0  0  0  0  0  0  0  0  0  0
    2.4780    1.2591    0.0000 C   0  0  0  0  0  0  0  0  0  0  0  0
    2.9553    2.6811    0.0000 Br  0  0  0  0  0  0  0  0  0  0  0  0
    3.4709    0.1347    0.0000 C   0  0  0  0  0  0  0  0  0  0  0  0
    2.9935   -1.2874    0.0000 C   0  0  0  0  0  0  0  0  0  0  0  0
    1.5234   -1.5850    0.0000 C   0  0  0  0  0  0  0  0  0  0  0  0
    1.0461   -3.0070    0.0000 Cl  0  0  0  0  0  0  0  0  0  0  0  0
   -3.4027    0.0685    0.0000 C   0  0  0  0  0  0  0  0  0  0  0  0
   -3.8800   -1.3536    0.0000 O   0  0  0  0  0  0  0  0  0  0  0  0
   -4.3955    1.1929    0.0000 O   0  0  0  0  0  0  0  0  0  0  0  0
  2  1  1  1
  2  3  1  0
  3  4  1  0
  4  5  1  0
  5  6  2  0
  6  7  1  0
  6  8  1  0
  8  9  2  0
  9 10  1  0
 10 11  1  0
  2 12  1  0
 12 13  2  0
 12 14  1  0
 10  4  2  0
M  END
>  <rName>  (1591) 
Phe_2Cl_5Br

>  <PQ_SYMBOL>  (1591) 
Phe_2Cl_5Br

>  <FULL_NAME>  (1591) 
(S)-2-amino-3-(5-bromo-2-chlorophenyl)propanoic acid

>  <IUPAC_CONDENSED>  (1591) 
Phe(2-Cl,5-Br)

>  <IUPAC>  (1591) 
(2S)-2-amino-3-(5-bromo-2-chlorophenyl)propanoic acid

>  <TYPE>  (1591) 
Backbone

>  <CLASS>  (1591) 
alpha

>  <ANALOG>  (1591) 
Phe

>  <MOL_WT>  (1591) 
278.533

>  <LOGP>  (1591) 
2.0569

>  <TPSA>  (1591) 
63.32000000000001

>  <POPULARITY>  (1591) 
2.9

>  <PROTECTED>  (1591) 
TRUE

>  <SMILES>  (1591) 
N[C@@H](Cc1(cc(Br)ccc1Cl))C(=O)O

>  <INCHIKEY>  (1591) 
WHUPPRGZWKRSEB-QMMMGPOBSA-N

$$$$
NMe-Nle_vinyl
     RDKit          2D

 12 11  0  0  0  0  0  0  0  0999 V2000
   -3.0962    1.4002    0.0000 N   0  0  0  0  0  0  0  0  0  0  0  0
   -4.4792    0.8195    0.0000 C   0  0  0  0  0  0  0  0  0  0  0  0
   -1.9017    0.4929    0.0000 C   0  0  0  0  0  0  0  0  0  0  0  0
   -0.5187    1.0737    0.0000 C   0  0  0  0  0  0  0  0  0  0  0  0
    0.6758    0.1664    0.0000 C   0  0  0  0  0  0  0  0  0  0  0  0
    2.0588    0.7472    0.0000 C   0  0  0  0  0  0  0  0  0  0  0  0
    3.2533   -0.1602    0.0000 C   0  0  0  0  0  0  0  0  0  0  0  0
    4.6363    0.4206    0.0000 C   0  0  0  0  0  0  0  0  0  0  0  0
    5.8307   -0.4867    0.0000 C   0  0  0  0  0  0  0  0  0  0  0  0
   -2.0902   -0.9952    0.0000 C   0  0  0  0  0  0  0  0  0  0  0  0
   -3.4732   -1.5760    0.0000 O   0  0  0  0  0  0  0  0  0  0  0  0
   -0.8957   -1.9025    0.0000 O   0  0  0  0  0  0  0  0  0  0  0  0
  1  2  1  0
  1  3  1  0
  3  4  1  1
  4  5  1  0
  5  6  1  0
  6  7  1  0
  7  8  1  0
  8  9  2  0
  3 10  1  0
 10 11  2  0
 10 12  1  0
M  END
>  <rName>  (1592) 
NMe-Nle_vinyl

>  <PQ_SYMBOL>  (1592) 
NMe-Nle_vinyl

>  <FULL_NAME>  (1592) 
(S)-2-(methylamino)oct-7-enoic acid

>  <IUPAC_CONDENSED>  (1592) 
Me-Nle(vinyl)

>  <IUPAC>  (1592) 
(2S)-2-(methylamino)oct-7-enoic acid

>  <TYPE>  (1592) 
Backbone

>  <CLASS>  (1592) 
alpha

>  <ANALOG>  (1592) 
Leu

>  <MOL_WT>  (1592) 
171.24

>  <LOGP>  (1592) 
1.4054

>  <TPSA>  (1592) 
49.33

>  <POPULARITY>  (1592) 
8.3

>  <PROTECTED>  (1592) 
TRUE

>  <SMILES>  (1592) 
N(C)[C@@H](CCCCC=C)C(=O)O

>  <INCHIKEY>  (1592) 
GKWXPYKDCRDLFL-QMMMGPOBSA-N

$$$$
aMehPhe
     RDKit          2D

 14 14  0  0  0  0  0  0  0  0999 V2000
   -2.7092    2.1394    0.0000 N   0  0  0  0  0  0  0  0  0  0  0  0
   -2.5158    0.6520    0.0000 C   0  0  0  0  0  0  0  0  0  0  0  0
   -4.0033    0.4585    0.0000 C   0  0  0  0  0  0  0  0  0  0  0  0
   -1.0283    0.8454    0.0000 C   0  0  0  0  0  0  0  0  0  0  0  0
   -0.1171   -0.3461    0.0000 C   0  0  0  0  0  0  0  0  0  0  0  0
    1.3704   -0.1526    0.0000 C   0  0  0  0  0  0  0  0  0  0  0  0
    1.9466    1.2323    0.0000 C   0  0  0  0  0  0  0  0  0  0  0  0
    3.4341    1.4257    0.0000 C   0  0  0  0  0  0  0  0  0  0  0  0
    4.3454    0.2342    0.0000 C   0  0  0  0  0  0  0  0  0  0  0  0
    3.7691   -1.1507    0.0000 C   0  0  0  0  0  0  0  0  0  0  0  0
    2.2817   -1.3441    0.0000 C   0  0  0  0  0  0  0  0  0  0  0  0
   -2.3224   -0.8355    0.0000 C   0  0  0  0  0  0  0  0  0  0  0  0
   -0.9375   -1.4117    0.0000 O   0  0  0  0  0  0  0  0  0  0  0  0
   -3.5138   -1.7468    0.0000 O   0  0  0  0  0  0  0  0  0  0  0  0
  1  2  1  0
  2  3  1  6
  2  4  1  0
  4  5  1  0
  5  6  1  0
  6  7  2  0
  7  8  1  0
  8  9  2  0
  9 10  1  0
 10 11  2  0
  2 12  1  0
 12 13  2  0
 12 14  1  0
 11  6  1  0
M  END
>  <rName>  (1593) 
aMehPhe

>  <PQ_SYMBOL>  (1593) 
aMehPhe

>  <FULL_NAME>  (1593) 
(S)-2-amino-2-methyl-4-phenylbutanoic acid

>  <IUPAC_CONDENSED>  (1593) 
aMehPhe

>  <IUPAC>  (1593) 
(2S)-2-amino-2-methyl-4-phenylbutanoic acid

>  <TYPE>  (1593) 
Backbone

>  <CLASS>  (1593) 
alpha

>  <ANALOG>  (1593) 
Phe

>  <MOL_WT>  (1593) 
193.24599999999998

>  <LOGP>  (1593) 
1.4212

>  <TPSA>  (1593) 
63.32000000000001

>  <POPULARITY>  (1593) 
8.7

>  <PROTECTED>  (1593) 
TRUE

>  <SMILES>  (1593) 
N[C@@](C)(CCc1(ccccc1))C(=O)O

>  <INCHIKEY>  (1593) 
PHZKTNAAGCQMAO-NSHDSACASA-N

$$$$
Phe_4Ph_2F
     RDKit          2D

 19 20  0  0  0  0  0  0  0  0999 V2000
   -3.3749    1.6701    0.0000 N   0  0  0  0  0  0  0  0  0  0  0  0
   -3.9688    0.2927    0.0000 C   0  0  0  0  0  0  0  0  0  0  0  0
   -3.0729   -0.9104    0.0000 C   0  0  0  0  0  0  0  0  0  0  0  0
   -1.5831   -0.7360    0.0000 C   0  0  0  0  0  0  0  0  0  0  0  0
   -0.9892    0.6414    0.0000 C   0  0  0  0  0  0  0  0  0  0  0  0
    0.5007    0.8158    0.0000 C   0  0  0  0  0  0  0  0  0  0  0  0
    1.3966   -0.3872    0.0000 C   0  0  0  0  0  0  0  0  0  0  0  0
    0.8027   -1.7647    0.0000 C   0  0  0  0  0  0  0  0  0  0  0  0
   -0.6871   -1.9390    0.0000 C   0  0  0  0  0  0  0  0  0  0  0  0
    2.8864   -0.2129    0.0000 C   0  0  0  0  0  0  0  0  0  0  0  0
    3.7823   -1.4159    0.0000 C   0  0  0  0  0  0  0  0  0  0  0  0
    5.2722   -1.2415    0.0000 C   0  0  0  0  0  0  0  0  0  0  0  0
    5.8661    0.1359    0.0000 C   0  0  0  0  0  0  0  0  0  0  0  0
    4.9702    1.3389    0.0000 C   0  0  0  0  0  0  0  0  0  0  0  0
    3.4803    1.1646    0.0000 C   0  0  0  0  0  0  0  0  0  0  0  0
    2.5844    2.3676    0.0000 F   0  0  0  0  0  0  0  0  0  0  0  0
   -5.4587    0.1183    0.0000 C   0  0  0  0  0  0  0  0  0  0  0  0
   -6.0526   -1.2591    0.0000 O   0  0  0  0  0  0  0  0  0  0  0  0
   -6.3546    1.3214    0.0000 O   0  0  0  0  0  0  0  0  0  0  0  0
  2  1  1  1
  2  3  1  0
  3  4  1  0
  4  5  1  0
  5  6  2  0
  6  7  1  0
  7  8  2  0
  8  9  1  0
  7 10  1  0
 10 11  2  0
 11 12  1  0
 12 13  2  0
 13 14  1  0
 14 15  2  0
 15 16  1  0
  2 17  1  0
 17 18  2  0
 17 19  1  0
  9  4  2  0
 15 10  1  0
M  END
>  <rName>  (1594) 
Phe_4Ph_2F

>  <PQ_SYMBOL>  (1594) 
Phe_4Ph_2F

>  <FULL_NAME>  (1594) 
(S)-2-amino-3-(2'-fluoro-[1,1'-biphenyl]-4-yl)propanoic acid

>  <IUPAC_CONDENSED>  (1594) 
Phe(4-Ph(2-F))

>  <IUPAC>  (1594) 
(2S)-2-amino-3-(4-(2-fluorophenyl)phenyl)propanoic acid

>  <TYPE>  (1594) 
Backbone

>  <CLASS>  (1594) 
alpha

>  <ANALOG>  (1594) 
Phe

>  <MOL_WT>  (1594) 
259.28

>  <LOGP>  (1594) 
2.4471

>  <TPSA>  (1594) 
63.32000000000001

>  <POPULARITY>  (1594) 
4.9

>  <PROTECTED>  (1594) 
TRUE

>  <SMILES>  (1594) 
N[C@@H](Cc1(ccc(cc1)c2(ccccc2F)))C(=O)O

>  <INCHIKEY>  (1594) 
JSOJVEHPJNZBIZ-AWEZNQCLSA-N

$$$$
NBn4NO2-G
     RDKit          2D

 15 15  0  0  0  0  0  0  0  0999 V2000
   -2.4475   -0.1997    0.0000 N   0  0  0  0  0  0  0  0  0  0  0  0
   -1.3526   -1.2250    0.0000 C   0  0  0  0  0  0  0  0  0  0  0  0
    0.0828   -0.7894    0.0000 C   0  0  0  0  0  0  0  0  0  0  0  0
    0.4233    0.6715    0.0000 C   0  0  0  0  0  0  0  0  0  0  0  0
    1.8586    1.1071    0.0000 C   0  0  0  0  0  0  0  0  0  0  0  0
    2.9535    0.0818    0.0000 C   0  0  0  0  0  0  0  0  0  0  0  0
    2.6131   -1.3791    0.0000 C   0  0  0  0  0  0  0  0  0  0  0  0
    1.1777   -1.8147    0.0000 C   0  0  0  0  0  0  0  0  0  0  0  0
    4.3889    0.5174    0.0000 N   0  0  0  0  0  0  0  0  0  0  0  0
    4.7293    1.9782    0.0000 O   0  0  0  0  0  0  0  0  0  0  0  0
    5.4838   -0.5079    0.0000 O   0  0  0  0  0  0  0  0  0  0  0  0
   -3.8828   -0.6353    0.0000 C   0  0  0  0  0  0  0  0  0  0  0  0
   -4.9777    0.3899    0.0000 C   0  0  0  0  0  0  0  0  0  0  0  0
   -4.6373    1.8508    0.0000 O   0  0  0  0  0  0  0  0  0  0  0  0
   -6.4131   -0.0456    0.0000 O   0  0  0  0  0  0  0  0  0  0  0  0
  1  2  1  0
  2  3  1  0
  3  4  1  0
  4  5  2  0
  5  6  1  0
  6  7  2  0
  7  8  1  0
  6  9  1  0
  9 10  2  0
  9 11  1  0
  1 12  1  0
 12 13  1  0
 13 14  2  0
 13 15  1  0
  8  3  2  0
M  CHG  2   9   1  11  -1
M  END
>  <rName>  (1595) 
NBn4NO2-G

>  <PQ_SYMBOL>  (1595) 
NBn4NO2-G

>  <FULL_NAME>  (1595) 
(4-nitrobenzyl)glycine

>  <IUPAC_CONDENSED>  (1595) 
Bn(4-NO2)-Gly

>  <IUPAC>  (1595) 
2-(((4-nitrophenyl)methyl)amino)acetic acid

>  <TYPE>  (1595) 
Backbone

>  <CLASS>  (1595) 
alpha

>  <ANALOG>  (1595) 
Gly

>  <MOL_WT>  (1595) 
210.18899999999996

>  <LOGP>  (1595) 
0.7690000000000001

>  <TPSA>  (1595) 
92.47000000000001

>  <POPULARITY>  (1595) 
7.3

>  <PROTECTED>  (1595) 
TRUE

>  <SMILES>  (1595) 
N(Cc1(ccc(cc1)[N+](=O)[O-]))CC(=O)O

>  <INCHIKEY>  (1595) 
WNQZQOVOWAVAHI-UHFFFAOYSA-N

$$$$
NBn3Me-G
     RDKit          2D

 13 13  0  0  0  0  0  0  0  0999 V2000
   -1.6091   -0.1426    0.0000 N   0  0  0  0  0  0  0  0  0  0  0  0
   -0.3532   -0.9628    0.0000 C   0  0  0  0  0  0  0  0  0  0  0  0
    0.9851   -0.2853    0.0000 C   0  0  0  0  0  0  0  0  0  0  0  0
    1.0675    1.2124    0.0000 C   0  0  0  0  0  0  0  0  0  0  0  0
    2.4057    1.8899    0.0000 C   0  0  0  0  0  0  0  0  0  0  0  0
    3.6616    1.0697    0.0000 C   0  0  0  0  0  0  0  0  0  0  0  0
    3.5792   -0.4280    0.0000 C   0  0  0  0  0  0  0  0  0  0  0  0
    4.8351   -1.2482    0.0000 C   0  0  0  0  0  0  0  0  0  0  0  0
    2.2410   -1.1055    0.0000 C   0  0  0  0  0  0  0  0  0  0  0  0
   -2.9473   -0.8201    0.0000 C   0  0  0  0  0  0  0  0  0  0  0  0
   -4.2032    0.0001    0.0000 C   0  0  0  0  0  0  0  0  0  0  0  0
   -4.1208    1.4978    0.0000 O   0  0  0  0  0  0  0  0  0  0  0  0
   -5.5415   -0.6774    0.0000 O   0  0  0  0  0  0  0  0  0  0  0  0
  1  2  1  0
  2  3  1  0
  3  4  2  0
  4  5  1  0
  5  6  2  0
  6  7  1  0
  7  8  1  0
  7  9  2  0
  1 10  1  0
 10 11  1  0
 11 12  2  0
 11 13  1  0
  9  3  1  0
M  END
>  <rName>  (1596) 
NBn3Me-G

>  <PQ_SYMBOL>  (1596) 
NBn3Me-G

>  <FULL_NAME>  (1596) 
(3-methylbenzyl)glycine

>  <IUPAC_CONDENSED>  (1596) 
Bn(3-Me)-Gly

>  <IUPAC>  (1596) 
2-(((3-methylphenyl)methyl)amino)acetic acid

>  <TYPE>  (1596) 
Backbone

>  <CLASS>  (1596) 
alpha

>  <ANALOG>  (1596) 
Gly

>  <MOL_WT>  (1596) 
179.21899999999997

>  <LOGP>  (1596) 
1.16922

>  <TPSA>  (1596) 
49.33

>  <POPULARITY>  (1596) 
14.3

>  <PROTECTED>  (1596) 
TRUE

>  <SMILES>  (1596) 
N(Cc1(cccc(C)c1))CC(=O)O

>  <INCHIKEY>  (1596) 
SGXUVYXVOSVNPH-UHFFFAOYSA-N

$$$$
NBn3F-G
     RDKit          2D

 13 13  0  0  0  0  0  0  0  0999 V2000
   -1.6091   -0.1426    0.0000 N   0  0  0  0  0  0  0  0  0  0  0  0
   -0.3532   -0.9628    0.0000 C   0  0  0  0  0  0  0  0  0  0  0  0
    0.9851   -0.2853    0.0000 C   0  0  0  0  0  0  0  0  0  0  0  0
    1.0675    1.2124    0.0000 C   0  0  0  0  0  0  0  0  0  0  0  0
    2.4057    1.8899    0.0000 C   0  0  0  0  0  0  0  0  0  0  0  0
    3.6616    1.0697    0.0000 C   0  0  0  0  0  0  0  0  0  0  0  0
    3.5792   -0.4280    0.0000 C   0  0  0  0  0  0  0  0  0  0  0  0
    4.8351   -1.2482    0.0000 F   0  0  0  0  0  0  0  0  0  0  0  0
    2.2410   -1.1055    0.0000 C   0  0  0  0  0  0  0  0  0  0  0  0
   -2.9473   -0.8201    0.0000 C   0  0  0  0  0  0  0  0  0  0  0  0
   -4.2032    0.0001    0.0000 C   0  0  0  0  0  0  0  0  0  0  0  0
   -4.1208    1.4978    0.0000 O   0  0  0  0  0  0  0  0  0  0  0  0
   -5.5415   -0.6774    0.0000 O   0  0  0  0  0  0  0  0  0  0  0  0
  1  2  1  0
  2  3  1  0
  3  4  2  0
  4  5  1  0
  5  6  2  0
  6  7  1  0
  7  8  1  0
  7  9  2  0
  1 10  1  0
 10 11  1  0
 11 12  2  0
 11 13  1  0
  9  3  1  0
M  END
>  <rName>  (1597) 
NBn3F-G

>  <PQ_SYMBOL>  (1597) 
NBn3F-G

>  <FULL_NAME>  (1597) 
(3-fluorobenzyl)glycine

>  <IUPAC_CONDENSED>  (1597) 
Bn(3-F)-Gly

>  <IUPAC>  (1597) 
2-(((3-fluorophenyl)methyl)amino)acetic acid

>  <TYPE>  (1597) 
Backbone

>  <CLASS>  (1597) 
alpha

>  <ANALOG>  (1597) 
Gly

>  <MOL_WT>  (1597) 
183.18199999999996

>  <LOGP>  (1597) 
0.9999000000000002

>  <TPSA>  (1597) 
49.33

>  <POPULARITY>  (1597) 
10.1

>  <PROTECTED>  (1597) 
TRUE

>  <SMILES>  (1597) 
N(Cc1(cccc(F)c1))CC(=O)O

>  <INCHIKEY>  (1597) 
FYGJHZLHWJYEAC-UHFFFAOYSA-N

$$$$
NBn2Me-G
     RDKit          2D

 13 13  0  0  0  0  0  0  0  0999 V2000
   -1.4032   -0.0365    0.0000 N   0  0  0  0  0  0  0  0  0  0  0  0
   -0.1485   -0.8584    0.0000 C   0  0  0  0  0  0  0  0  0  0  0  0
    1.1907   -0.1827    0.0000 C   0  0  0  0  0  0  0  0  0  0  0  0
    1.2751    1.3149    0.0000 C   0  0  0  0  0  0  0  0  0  0  0  0
    2.6143    1.9906    0.0000 C   0  0  0  0  0  0  0  0  0  0  0  0
    3.8691    1.1687    0.0000 C   0  0  0  0  0  0  0  0  0  0  0  0
    3.7847   -0.3289    0.0000 C   0  0  0  0  0  0  0  0  0  0  0  0
    2.4455   -1.0046    0.0000 C   0  0  0  0  0  0  0  0  0  0  0  0
    2.3611   -2.5022    0.0000 C   0  0  0  0  0  0  0  0  0  0  0  0
   -2.7424   -0.7122    0.0000 C   0  0  0  0  0  0  0  0  0  0  0  0
   -3.9972    0.1097    0.0000 C   0  0  0  0  0  0  0  0  0  0  0  0
   -3.9128    1.6074    0.0000 O   0  0  0  0  0  0  0  0  0  0  0  0
   -5.3364   -0.5660    0.0000 O   0  0  0  0  0  0  0  0  0  0  0  0
  1  2  1  0
  2  3  1  0
  3  4  2  0
  4  5  1  0
  5  6  2  0
  6  7  1  0
  7  8  2  0
  8  9  1  0
  1 10  1  0
 10 11  1  0
 11 12  2  0
 11 13  1  0
  8  3  1  0
M  END
>  <rName>  (1598) 
NBn2Me-G

>  <PQ_SYMBOL>  (1598) 
NBn2Me-G

>  <FULL_NAME>  (1598) 
(2-methylbenzyl)glycine

>  <IUPAC_CONDENSED>  (1598) 
Bn(2-Me)-Gly

>  <IUPAC>  (1598) 
2-(((2-methylphenyl)methyl)amino)acetic acid

>  <TYPE>  (1598) 
Backbone

>  <CLASS>  (1598) 
alpha

>  <ANALOG>  (1598) 
Gly

>  <MOL_WT>  (1598) 
179.21899999999997

>  <LOGP>  (1598) 
1.16922

>  <TPSA>  (1598) 
49.33

>  <POPULARITY>  (1598) 
14

>  <PROTECTED>  (1598) 
TRUE

>  <SMILES>  (1598) 
N(Cc1(ccccc1C))CC(=O)O

>  <INCHIKEY>  (1598) 
FSHQMEULJGMJPU-UHFFFAOYSA-N

$$$$
NBn3Br-G
     RDKit          2D

 13 13  0  0  0  0  0  0  0  0999 V2000
   -1.6091   -0.1426    0.0000 N   0  0  0  0  0  0  0  0  0  0  0  0
   -0.3532   -0.9628    0.0000 C   0  0  0  0  0  0  0  0  0  0  0  0
    0.9851   -0.2853    0.0000 C   0  0  0  0  0  0  0  0  0  0  0  0
    1.0675    1.2124    0.0000 C   0  0  0  0  0  0  0  0  0  0  0  0
    2.4057    1.8899    0.0000 C   0  0  0  0  0  0  0  0  0  0  0  0
    3.6616    1.0697    0.0000 C   0  0  0  0  0  0  0  0  0  0  0  0
    3.5792   -0.4280    0.0000 C   0  0  0  0  0  0  0  0  0  0  0  0
    4.8351   -1.2482    0.0000 Br  0  0  0  0  0  0  0  0  0  0  0  0
    2.2410   -1.1055    0.0000 C   0  0  0  0  0  0  0  0  0  0  0  0
   -2.9473   -0.8201    0.0000 C   0  0  0  0  0  0  0  0  0  0  0  0
   -4.2032    0.0001    0.0000 C   0  0  0  0  0  0  0  0  0  0  0  0
   -4.1208    1.4978    0.0000 O   0  0  0  0  0  0  0  0  0  0  0  0
   -5.5415   -0.6774    0.0000 O   0  0  0  0  0  0  0  0  0  0  0  0
  1  2  1  0
  2  3  1  0
  3  4  2  0
  4  5  1  0
  5  6  2  0
  6  7  1  0
  7  8  1  0
  7  9  2  0
  1 10  1  0
 10 11  1  0
 11 12  2  0
 11 13  1  0
  9  3  1  0
M  END
>  <rName>  (1599) 
NBn3Br-G

>  <PQ_SYMBOL>  (1599) 
NBn3Br-G

>  <FULL_NAME>  (1599) 
(3-bromobenzyl)glycine

>  <IUPAC_CONDENSED>  (1599) 
Bn(3-Br)-Gly

>  <IUPAC>  (1599) 
2-(((3-bromophenyl)methyl)amino)acetic acid

>  <TYPE>  (1599) 
Backbone

>  <CLASS>  (1599) 
alpha

>  <ANALOG>  (1599) 
Gly

>  <MOL_WT>  (1599) 
244.08799999999997

>  <LOGP>  (1599) 
1.6233

>  <TPSA>  (1599) 
49.33

>  <POPULARITY>  (1599) 
8.5

>  <PROTECTED>  (1599) 
TRUE

>  <SMILES>  (1599) 
N(Cc1(cccc(Br)c1))CC(=O)O

>  <INCHIKEY>  (1599) 
VQMCEIXNBBYYAF-UHFFFAOYSA-N

$$$$
NBn2Br-G
     RDKit          2D

 13 13  0  0  0  0  0  0  0  0999 V2000
   -1.4032   -0.0365    0.0000 N   0  0  0  0  0  0  0  0  0  0  0  0
   -0.1485   -0.8584    0.0000 C   0  0  0  0  0  0  0  0  0  0  0  0
    1.1907   -0.1827    0.0000 C   0  0  0  0  0  0  0  0  0  0  0  0
    1.2751    1.3149    0.0000 C   0  0  0  0  0  0  0  0  0  0  0  0
    2.6143    1.9906    0.0000 C   0  0  0  0  0  0  0  0  0  0  0  0
    3.8691    1.1687    0.0000 C   0  0  0  0  0  0  0  0  0  0  0  0
    3.7847   -0.3289    0.0000 C   0  0  0  0  0  0  0  0  0  0  0  0
    2.4455   -1.0046    0.0000 C   0  0  0  0  0  0  0  0  0  0  0  0
    2.3611   -2.5022    0.0000 Br  0  0  0  0  0  0  0  0  0  0  0  0
   -2.7424   -0.7122    0.0000 C   0  0  0  0  0  0  0  0  0  0  0  0
   -3.9972    0.1097    0.0000 C   0  0  0  0  0  0  0  0  0  0  0  0
   -3.9128    1.6074    0.0000 O   0  0  0  0  0  0  0  0  0  0  0  0
   -5.3364   -0.5660    0.0000 O   0  0  0  0  0  0  0  0  0  0  0  0
  1  2  1  0
  2  3  1  0
  3  4  2  0
  4  5  1  0
  5  6  2  0
  6  7  1  0
  7  8  2  0
  8  9  1  0
  1 10  1  0
 10 11  1  0
 11 12  2  0
 11 13  1  0
  8  3  1  0
M  END
>  <rName>  (1600) 
NBn2Br-G

>  <PQ_SYMBOL>  (1600) 
NBn2Br-G

>  <FULL_NAME>  (1600) 
(2-bromobenzyl)glycine

>  <IUPAC_CONDENSED>  (1600) 
Bn(2-Br)-Gly

>  <IUPAC>  (1600) 
2-(((2-bromophenyl)methyl)amino)acetic acid

>  <TYPE>  (1600) 
Backbone

>  <CLASS>  (1600) 
alpha

>  <ANALOG>  (1600) 
Gly

>  <MOL_WT>  (1600) 
244.08799999999997

>  <LOGP>  (1600) 
1.6233000000000002

>  <TPSA>  (1600) 
49.33

>  <POPULARITY>  (1600) 
9.2

>  <PROTECTED>  (1600) 
TRUE

>  <SMILES>  (1600) 
N(Cc1(ccccc1Br))CC(=O)O

>  <INCHIKEY>  (1600) 
KHUZHEPVJSJMMQ-UHFFFAOYSA-N

$$$$
NBn2Cl-G
     RDKit          2D

 13 13  0  0  0  0  0  0  0  0999 V2000
   -1.4032   -0.0365    0.0000 N   0  0  0  0  0  0  0  0  0  0  0  0
   -0.1485   -0.8584    0.0000 C   0  0  0  0  0  0  0  0  0  0  0  0
    1.1907   -0.1827    0.0000 C   0  0  0  0  0  0  0  0  0  0  0  0
    1.2751    1.3149    0.0000 C   0  0  0  0  0  0  0  0  0  0  0  0
    2.6143    1.9906    0.0000 C   0  0  0  0  0  0  0  0  0  0  0  0
    3.8691    1.1687    0.0000 C   0  0  0  0  0  0  0  0  0  0  0  0
    3.7847   -0.3289    0.0000 C   0  0  0  0  0  0  0  0  0  0  0  0
    2.4455   -1.0046    0.0000 C   0  0  0  0  0  0  0  0  0  0  0  0
    2.3611   -2.5022    0.0000 Cl  0  0  0  0  0  0  0  0  0  0  0  0
   -2.7424   -0.7122    0.0000 C   0  0  0  0  0  0  0  0  0  0  0  0
   -3.9972    0.1097    0.0000 C   0  0  0  0  0  0  0  0  0  0  0  0
   -3.9128    1.6074    0.0000 O   0  0  0  0  0  0  0  0  0  0  0  0
   -5.3364   -0.5660    0.0000 O   0  0  0  0  0  0  0  0  0  0  0  0
  1  2  1  0
  2  3  1  0
  3  4  2  0
  4  5  1  0
  5  6  2  0
  6  7  1  0
  7  8  2  0
  8  9  1  0
  1 10  1  0
 10 11  1  0
 11 12  2  0
 11 13  1  0
  8  3  1  0
M  END
>  <rName>  (1601) 
NBn2Cl-G

>  <PQ_SYMBOL>  (1601) 
NBn2Cl-G

>  <FULL_NAME>  (1601) 
(2-chlorobenzyl)glycine

>  <IUPAC_CONDENSED>  (1601) 
Bn(2-Cl)-Gly

>  <IUPAC>  (1601) 
2-(((2-chlorophenyl)methyl)amino)acetic acid

>  <TYPE>  (1601) 
Backbone

>  <CLASS>  (1601) 
alpha

>  <ANALOG>  (1601) 
Gly

>  <MOL_WT>  (1601) 
199.63699999999994

>  <LOGP>  (1601) 
1.5142

>  <TPSA>  (1601) 
49.33

>  <POPULARITY>  (1601) 
11.5

>  <PROTECTED>  (1601) 
TRUE

>  <SMILES>  (1601) 
N(Cc1(ccccc1Cl))CC(=O)O

>  <INCHIKEY>  (1601) 
CBQHOZRSTUYWGQ-UHFFFAOYSA-N

$$$$
NMbzl-G
     RDKit          2D

 13 13  0  0  0  0  0  0  0  0999 V2000
   -1.6537   -0.1855    0.0000 N   0  0  0  0  0  0  0  0  0  0  0  0
   -0.4997   -1.1437    0.0000 C   0  0  0  0  0  0  0  0  0  0  0  0
    0.9072   -0.6234    0.0000 C   0  0  0  0  0  0  0  0  0  0  0  0
    1.1600    0.8552    0.0000 C   0  0  0  0  0  0  0  0  0  0  0  0
    2.5669    1.3755    0.0000 C   0  0  0  0  0  0  0  0  0  0  0  0
    3.7209    0.4173    0.0000 C   0  0  0  0  0  0  0  0  0  0  0  0
    5.1278    0.9376    0.0000 C   0  0  0  0  0  0  0  0  0  0  0  0
    3.4681   -1.0612    0.0000 C   0  0  0  0  0  0  0  0  0  0  0  0
    2.0612   -1.5816    0.0000 C   0  0  0  0  0  0  0  0  0  0  0  0
   -3.0606   -0.7058    0.0000 C   0  0  0  0  0  0  0  0  0  0  0  0
   -4.2146    0.2524    0.0000 C   0  0  0  0  0  0  0  0  0  0  0  0
   -3.9618    1.7310    0.0000 O   0  0  0  0  0  0  0  0  0  0  0  0
   -5.6215   -0.2679    0.0000 O   0  0  0  0  0  0  0  0  0  0  0  0
  1  2  1  0
  2  3  1  0
  3  4  1  0
  4  5  2  0
  5  6  1  0
  6  7  1  0
  6  8  2  0
  8  9  1  0
  1 10  1  0
 10 11  1  0
 11 12  2  0
 11 13  1  0
  9  3  2  0
M  END
>  <rName>  (1602) 
NMbzl-G

>  <PQ_SYMBOL>  (1602) 
NMbzl-G

>  <FULL_NAME>  (1602) 
(4-methylbenzyl)glycine

>  <IUPAC_CONDENSED>  (1602) 
Mbzl-Gly

>  <IUPAC>  (1602) 
2-(((4-methylphenyl)methyl)amino)acetic acid

>  <TYPE>  (1602) 
Backbone

>  <CLASS>  (1602) 
alpha

>  <ANALOG>  (1602) 
Gly

>  <MOL_WT>  (1602) 
179.21899999999997

>  <LOGP>  (1602) 
1.16922

>  <TPSA>  (1602) 
49.33

>  <POPULARITY>  (1602) 
13.6

>  <PROTECTED>  (1602) 
TRUE

>  <SMILES>  (1602) 
N(Cc1(ccc(C)cc1))CC(=O)O

>  <INCHIKEY>  (1602) 
LZBYHWQHNZFDSR-UHFFFAOYSA-N

$$$$
NMob-G
     RDKit          2D

 14 14  0  0  0  0  0  0  0  0999 V2000
   -2.1023   -0.1855    0.0000 N   0  0  0  0  0  0  0  0  0  0  0  0
   -0.9476   -1.1429    0.0000 C   0  0  0  0  0  0  0  0  0  0  0  0
    0.4589   -0.6216    0.0000 C   0  0  0  0  0  0  0  0  0  0  0  0
    0.7107    0.8572    0.0000 C   0  0  0  0  0  0  0  0  0  0  0  0
    2.1172    1.3785    0.0000 C   0  0  0  0  0  0  0  0  0  0  0  0
    3.2719    0.4211    0.0000 C   0  0  0  0  0  0  0  0  0  0  0  0
    4.6784    0.9425    0.0000 O   0  0  0  0  0  0  0  0  0  0  0  0
    5.8331   -0.0149    0.0000 C   0  0  0  0  0  0  0  0  0  0  0  0
    3.0201   -1.0576    0.0000 C   0  0  0  0  0  0  0  0  0  0  0  0
    1.6137   -1.5789    0.0000 C   0  0  0  0  0  0  0  0  0  0  0  0
   -3.5088   -0.7068    0.0000 C   0  0  0  0  0  0  0  0  0  0  0  0
   -4.6635    0.2505    0.0000 C   0  0  0  0  0  0  0  0  0  0  0  0
   -4.4118    1.7293    0.0000 O   0  0  0  0  0  0  0  0  0  0  0  0
   -6.0700   -0.2708    0.0000 O   0  0  0  0  0  0  0  0  0  0  0  0
  1  2  1  0
  2  3  1  0
  3  4  1  0
  4  5  2  0
  5  6  1  0
  6  7  1  0
  7  8  1  0
  6  9  2  0
  9 10  1  0
  1 11  1  0
 11 12  1  0
 12 13  2  0
 12 14  1  0
 10  3  2  0
M  END
>  <rName>  (1603) 
NMob-G

>  <PQ_SYMBOL>  (1603) 
NMob-G

>  <FULL_NAME>  (1603) 
(4-methoxybenzyl)glycine

>  <IUPAC_CONDENSED>  (1603) 
Mob-Gly

>  <IUPAC>  (1603) 
2-(((4-methoxyphenyl)methyl)amino)acetic acid

>  <TYPE>  (1603) 
Backbone

>  <CLASS>  (1603) 
alpha

>  <ANALOG>  (1603) 
Gly

>  <MOL_WT>  (1603) 
195.21799999999996

>  <LOGP>  (1603) 
0.8694000000000002

>  <TPSA>  (1603) 
58.56

>  <POPULARITY>  (1603) 
13

>  <PROTECTED>  (1603) 
TRUE

>  <SMILES>  (1603) 
N(Cc1(ccc(OC)cc1))CC(=O)O

>  <INCHIKEY>  (1603) 
QEOHOHDWOLGNLN-UHFFFAOYSA-N

$$$$
NBn4F-G
     RDKit          2D

 13 13  0  0  0  0  0  0  0  0999 V2000
   -1.6537   -0.1855    0.0000 N   0  0  0  0  0  0  0  0  0  0  0  0
   -0.4997   -1.1437    0.0000 C   0  0  0  0  0  0  0  0  0  0  0  0
    0.9072   -0.6234    0.0000 C   0  0  0  0  0  0  0  0  0  0  0  0
    1.1600    0.8552    0.0000 C   0  0  0  0  0  0  0  0  0  0  0  0
    2.5669    1.3755    0.0000 C   0  0  0  0  0  0  0  0  0  0  0  0
    3.7209    0.4173    0.0000 C   0  0  0  0  0  0  0  0  0  0  0  0
    5.1278    0.9376    0.0000 F   0  0  0  0  0  0  0  0  0  0  0  0
    3.4681   -1.0612    0.0000 C   0  0  0  0  0  0  0  0  0  0  0  0
    2.0612   -1.5816    0.0000 C   0  0  0  0  0  0  0  0  0  0  0  0
   -3.0606   -0.7058    0.0000 C   0  0  0  0  0  0  0  0  0  0  0  0
   -4.2146    0.2524    0.0000 C   0  0  0  0  0  0  0  0  0  0  0  0
   -3.9618    1.7310    0.0000 O   0  0  0  0  0  0  0  0  0  0  0  0
   -5.6215   -0.2679    0.0000 O   0  0  0  0  0  0  0  0  0  0  0  0
  1  2  1  0
  2  3  1  0
  3  4  1  0
  4  5  2  0
  5  6  1  0
  6  7  1  0
  6  8  2  0
  8  9  1  0
  1 10  1  0
 10 11  1  0
 11 12  2  0
 11 13  1  0
  9  3  2  0
M  END
>  <rName>  (1604) 
NBn4F-G

>  <PQ_SYMBOL>  (1604) 
NBn4F-G

>  <FULL_NAME>  (1604) 
(4-fluorobenzyl)glycine

>  <IUPAC_CONDENSED>  (1604) 
Bn(4-F)-Gly

>  <IUPAC>  (1604) 
2-(((4-fluorophenyl)methyl)amino)acetic acid

>  <TYPE>  (1604) 
Backbone

>  <CLASS>  (1604) 
alpha

>  <ANALOG>  (1604) 
Gly

>  <MOL_WT>  (1604) 
183.18199999999996

>  <LOGP>  (1604) 
0.9999000000000002

>  <TPSA>  (1604) 
49.33

>  <POPULARITY>  (1604) 
9.2

>  <PROTECTED>  (1604) 
TRUE

>  <SMILES>  (1604) 
N(Cc1(ccc(F)cc1))CC(=O)O

>  <INCHIKEY>  (1604) 
NWZUJCANYJTQFS-UHFFFAOYSA-N

$$$$
NBn4CF3-G
     RDKit          2D

 16 16  0  0  0  0  0  0  0  0999 V2000
   -2.7241   -0.2035    0.0000 N   0  0  0  0  0  0  0  0  0  0  0  0
   -1.6400   -1.2402    0.0000 C   0  0  0  0  0  0  0  0  0  0  0  0
   -0.2001   -0.8197    0.0000 C   0  0  0  0  0  0  0  0  0  0  0  0
    0.1556    0.6375    0.0000 C   0  0  0  0  0  0  0  0  0  0  0  0
    1.5955    1.0580    0.0000 C   0  0  0  0  0  0  0  0  0  0  0  0
    2.6796    0.0213    0.0000 C   0  0  0  0  0  0  0  0  0  0  0  0
    2.3238   -1.4359    0.0000 C   0  0  0  0  0  0  0  0  0  0  0  0
    0.8840   -1.8564    0.0000 C   0  0  0  0  0  0  0  0  0  0  0  0
    4.1194    0.4419    0.0000 C   0  0  0  0  0  0  0  0  0  0  0  0
    5.5593    0.8624    0.0000 F   0  0  0  0  0  0  0  0  0  0  0  0
    4.5400   -0.9980    0.0000 F   0  0  0  0  0  0  0  0  0  0  0  0
    3.6989    1.8817    0.0000 F   0  0  0  0  0  0  0  0  0  0  0  0
   -4.1639   -0.6240    0.0000 C   0  0  0  0  0  0  0  0  0  0  0  0
   -5.2480    0.4127    0.0000 C   0  0  0  0  0  0  0  0  0  0  0  0
   -4.8923    1.8699    0.0000 O   0  0  0  0  0  0  0  0  0  0  0  0
   -6.6879   -0.0078    0.0000 O   0  0  0  0  0  0  0  0  0  0  0  0
  1  2  1  0
  2  3  1  0
  3  4  1  0
  4  5  2  0
  5  6  1  0
  6  7  2  0
  7  8  1  0
  6  9  1  0
  9 10  1  0
  9 11  1  0
  9 12  1  0
  1 13  1  0
 13 14  1  0
 14 15  2  0
 14 16  1  0
  8  3  2  0
M  END
>  <rName>  (1605) 
NBn4CF3-G

>  <PQ_SYMBOL>  (1605) 
NBn4CF3-G

>  <FULL_NAME>  (1605) 
(4-(trifluoromethyl)benzyl)glycine

>  <IUPAC_CONDENSED>  (1605) 
Bn(4-CF3)-Gly

>  <IUPAC>  (1605) 
2-(((4-(trifluoromethyl)phenyl)methyl)amino)acetic acid

>  <TYPE>  (1605) 
Backbone

>  <CLASS>  (1605) 
alpha

>  <ANALOG>  (1605) 
Gly

>  <MOL_WT>  (1605) 
233.18899999999994

>  <LOGP>  (1605) 
1.8796000000000002

>  <TPSA>  (1605) 
49.33

>  <POPULARITY>  (1605) 
8

>  <PROTECTED>  (1605) 
TRUE

>  <SMILES>  (1605) 
N(Cc1(ccc(cc1)C(F)(F)F))CC(=O)O

>  <INCHIKEY>  (1605) 
PWHUOSWTEIHEEV-UHFFFAOYSA-N

$$$$
Lys_Poc
     RDKit          2D

 16 15  0  0  0  0  0  0  0  0999 V2000
    8.3748   -1.0810    0.0000 C   0  0  0  0  0  0  0  0  0  0  0  0
    7.0677   -0.3451    0.0000 C   0  0  0  0  0  0  0  0  0  0  0  0
    5.7606    0.3907    0.0000 C   0  0  0  0  0  0  0  0  0  0  0  0
    4.4698   -0.3734    0.0000 O   0  0  0  0  0  0  0  0  0  0  0  0
    3.1627    0.3625    0.0000 C   0  0  0  0  0  0  0  0  0  0  0  0
    3.1464    1.8624    0.0000 O   0  0  0  0  0  0  0  0  0  0  0  0
    1.8718   -0.4016    0.0000 N   0  0  0  0  0  0  0  0  0  0  0  0
    0.5647    0.3343    0.0000 C   0  0  0  0  0  0  0  0  0  0  0  0
   -0.7261   -0.4298    0.0000 C   0  0  0  0  0  0  0  0  0  0  0  0
   -2.0332    0.3061    0.0000 C   0  0  0  0  0  0  0  0  0  0  0  0
   -3.3240   -0.4580    0.0000 C   0  0  0  0  0  0  0  0  0  0  0  0
   -4.6311    0.2779    0.0000 C   0  0  0  0  0  0  0  0  0  0  0  0
   -4.6474    1.7778    0.0000 N   0  0  0  0  0  0  0  0  0  0  0  0
   -5.9219   -0.4862    0.0000 C   0  0  0  0  0  0  0  0  0  0  0  0
   -5.9056   -1.9861    0.0000 O   0  0  0  0  0  0  0  0  0  0  0  0
   -7.2290    0.2496    0.0000 O   0  0  0  0  0  0  0  0  0  0  0  0
  1  2  3  0
  2  3  1  0
  3  4  1  0
  4  5  1  0
  5  6  2  0
  5  7  1  0
  7  8  1  0
  8  9  1  0
  9 10  1  0
 10 11  1  0
 11 12  1  0
 12 13  1  1
 12 14  1  0
 14 15  2  0
 14 16  1  0
M  END
>  <rName>  (1606) 
Lys_Poc

>  <PQ_SYMBOL>  (1606) 
Lys_Poc

>  <FULL_NAME>  (1606) 
N6-((prop-2-yn-1-yloxy)carbonyl)-L-lysine

>  <IUPAC_CONDENSED>  (1606) 
Lys(Poc)

>  <IUPAC>  (1606) 
(2S)-2-amino-6-((prop-2-yn-1-yl)oxycarbonylamino)hexanoic acid

>  <TYPE>  (1606) 
Backbone

>  <CLASS>  (1606) 
alpha

>  <ANALOG>  (1606) 
Lys

>  <MOL_WT>  (1606) 
228.24799999999996

>  <LOGP>  (1606) 
-0.0719999999999994

>  <TPSA>  (1606) 
101.64999999999999

>  <POPULARITY>  (1606) 
3.9

>  <PROTECTED>  (1606) 
TRUE

>  <SMILES>  (1606) 
C#CCOC(=O)NCCCC[C@H](N)C(=O)O

>  <INCHIKEY>  (1606) 
KRFMMSZGIQEBIJ-QMMMGPOBSA-N

$$$$
Nallyl-F
     RDKit          2D

 15 15  0  0  0  0  0  0  0  0999 V2000
   -1.0539    0.4682    0.0000 N   0  0  0  0  0  0  0  0  0  0  0  0
   -2.4666    0.9725    0.0000 C   0  0  0  0  0  0  0  0  0  0  0  0
   -2.7363    2.4480    0.0000 C   0  0  0  0  0  0  0  0  0  0  0  0
   -4.1489    2.9523    0.0000 C   0  0  0  0  0  0  0  0  0  0  0  0
   -0.7843   -1.0074    0.0000 C   0  0  0  0  0  0  0  0  0  0  0  0
    0.6284   -1.5117    0.0000 C   0  0  0  0  0  0  0  0  0  0  0  0
    1.7714   -0.5404    0.0000 C   0  0  0  0  0  0  0  0  0  0  0  0
    1.5018    0.9352    0.0000 C   0  0  0  0  0  0  0  0  0  0  0  0
    2.6449    1.9065    0.0000 C   0  0  0  0  0  0  0  0  0  0  0  0
    4.0576    1.4022    0.0000 C   0  0  0  0  0  0  0  0  0  0  0  0
    4.3272   -0.0734    0.0000 C   0  0  0  0  0  0  0  0  0  0  0  0
    3.1841   -1.0447    0.0000 C   0  0  0  0  0  0  0  0  0  0  0  0
   -1.9274   -1.9787    0.0000 C   0  0  0  0  0  0  0  0  0  0  0  0
   -1.6578   -3.4542    0.0000 O   0  0  0  0  0  0  0  0  0  0  0  0
   -3.3401   -1.4744    0.0000 O   0  0  0  0  0  0  0  0  0  0  0  0
  1  2  1  0
  2  3  1  0
  3  4  2  0
  1  5  1  0
  5  6  1  1
  6  7  1  0
  7  8  2  0
  8  9  1  0
  9 10  2  0
 10 11  1  0
 11 12  2  0
  5 13  1  0
 13 14  2  0
 13 15  1  0
 12  7  1  0
M  END
>  <rName>  (1607) 
Nallyl-F

>  <PQ_SYMBOL>  (1607) 
Nallyl-F

>  <FULL_NAME>  (1607) 
allyl-L-phenylalanine

>  <IUPAC_CONDENSED>  (1607) 
allyl-Phe

>  <IUPAC>  (1607) 
(2S)-3-phenyl-2-((prop-2-en-1-yl)amino)propanoic acid

>  <TYPE>  (1607) 
Backbone

>  <CLASS>  (1607) 
alpha

>  <ANALOG>  (1607) 
Phe

>  <MOL_WT>  (1607) 
205.257

>  <LOGP>  (1607) 
1.4579

>  <TPSA>  (1607) 
49.33

>  <POPULARITY>  (1607) 
8.1

>  <PROTECTED>  (1607) 
TRUE

>  <SMILES>  (1607) 
N(CC=C)[C@@H](Cc1(ccccc1))C(=O)O

>  <INCHIKEY>  (1607) 
HSASCPKHTQHHLP-NSHDSACASA-N

$$$$
Nbut3enyl-A
     RDKit          2D

 10  9  0  0  0  0  0  0  0  0999 V2000
    0.2559   -1.1432    0.0000 N   0  0  0  0  0  0  0  0  0  0  0  0
   -0.8283   -0.1067    0.0000 C   0  0  0  0  0  0  0  0  0  0  0  0
   -2.2681   -0.5274    0.0000 C   0  0  0  0  0  0  0  0  0  0  0  0
   -3.3524    0.5091    0.0000 C   0  0  0  0  0  0  0  0  0  0  0  0
   -4.7921    0.0884    0.0000 C   0  0  0  0  0  0  0  0  0  0  0  0
    1.6957   -0.7225    0.0000 C   0  0  0  0  0  0  0  0  0  0  0  0
    2.7800   -1.7591    0.0000 C   0  0  0  0  0  0  0  0  0  0  0  0
    2.0513    0.7347    0.0000 C   0  0  0  0  0  0  0  0  0  0  0  0
    0.9670    1.7713    0.0000 O   0  0  0  0  0  0  0  0  0  0  0  0
    3.4911    1.1554    0.0000 O   0  0  0  0  0  0  0  0  0  0  0  0
  1  2  1  0
  2  3  1  0
  3  4  1  0
  4  5  2  0
  1  6  1  0
  6  7  1  6
  6  8  1  0
  8  9  2  0
  8 10  1  0
M  END
>  <rName>  (1608) 
Nbut3enyl-A

>  <PQ_SYMBOL>  (1608) 
Nbut3enyl-A

>  <FULL_NAME>  (1608) 
but-3-en-1-yl-L-alanine

>  <IUPAC_CONDENSED>  (1608) 
but-3-enyl-Ala

>  <IUPAC>  (1608) 
(2S)-2-((but-3-en-1-yl)amino)propanoic acid

>  <TYPE>  (1608) 
Backbone

>  <CLASS>  (1608) 
alpha

>  <ANALOG>  (1608) 
Ala

>  <MOL_WT>  (1608) 
143.186

>  <LOGP>  (1608) 
0.6252000000000002

>  <TPSA>  (1608) 
49.33

>  <POPULARITY>  (1608) 
11.2

>  <PROTECTED>  (1608) 
TRUE

>  <SMILES>  (1608) 
N(CCC=C)[C@@H](C)C(=O)O

>  <INCHIKEY>  (1608) 
BIBPZLSHNULEDH-LURJTMIESA-N

$$$$
Nbut3enyl-L
     RDKit          2D

 13 12  0  0  0  0  0  0  0  0999 V2000
   -0.7080   -0.9678    0.0000 N   0  0  0  0  0  0  0  0  0  0  0  0
   -1.9186   -0.0822    0.0000 C   0  0  0  0  0  0  0  0  0  0  0  0
   -3.2909   -0.6878    0.0000 C   0  0  0  0  0  0  0  0  0  0  0  0
   -4.5016    0.1979    0.0000 C   0  0  0  0  0  0  0  0  0  0  0  0
   -5.8739   -0.4078    0.0000 C   0  0  0  0  0  0  0  0  0  0  0  0
    0.6643   -0.3622    0.0000 C   0  0  0  0  0  0  0  0  0  0  0  0
    1.8750   -1.2478    0.0000 C   0  0  0  0  0  0  0  0  0  0  0  0
    3.2473   -0.6422    0.0000 C   0  0  0  0  0  0  0  0  0  0  0  0
    4.4579   -1.5278    0.0000 C   0  0  0  0  0  0  0  0  0  0  0  0
    3.4089    0.8491    0.0000 C   0  0  0  0  0  0  0  0  0  0  0  0
    0.8260    1.1291    0.0000 C   0  0  0  0  0  0  0  0  0  0  0  0
   -0.3847    2.0147    0.0000 O   0  0  0  0  0  0  0  0  0  0  0  0
    2.1983    1.7347    0.0000 O   0  0  0  0  0  0  0  0  0  0  0  0
  1  2  1  0
  2  3  1  0
  3  4  1  0
  4  5  2  0
  1  6  1  0
  6  7  1  6
  7  8  1  0
  8  9  1  0
  8 10  1  0
  6 11  1  0
 11 12  2  0
 11 13  1  0
M  END
>  <rName>  (1609) 
Nbut3enyl-L

>  <PQ_SYMBOL>  (1609) 
Nbut3enyl-L

>  <FULL_NAME>  (1609) 
but-3-en-1-yl-L-leucine

>  <IUPAC_CONDENSED>  (1609) 
but-3-enyl-Leu

>  <IUPAC>  (1609) 
(2S)-2-((but-3-en-1-yl)amino)-4-methylpentanoic acid

>  <TYPE>  (1609) 
Backbone

>  <CLASS>  (1609) 
alpha

>  <ANALOG>  (1609) 
Leu

>  <MOL_WT>  (1609) 
185.267

>  <LOGP>  (1609) 
1.6514000000000002

>  <TPSA>  (1609) 
49.33

>  <POPULARITY>  (1609) 
6.6

>  <PROTECTED>  (1609) 
TRUE

>  <SMILES>  (1609) 
N(CCC=C)[C@@H](CC(C)C)C(=O)O

>  <INCHIKEY>  (1609) 
XRNXJJCFVVIGFC-VIFPVBQESA-N

$$$$
hPhe_4CN
     RDKit          2D

 15 15  0  0  0  0  0  0  0  0999 V2000
   -3.7148   -1.7918    0.0000 N   0  0  0  0  0  0  0  0  0  0  0  0
   -3.3229   -0.3439    0.0000 C   0  0  0  0  0  0  0  0  0  0  0  0
   -1.8731    0.0407    0.0000 C   0  0  0  0  0  0  0  0  0  0  0  0
   -0.8151   -1.0226    0.0000 C   0  0  0  0  0  0  0  0  0  0  0  0
    0.6348   -0.6380    0.0000 C   0  0  0  0  0  0  0  0  0  0  0  0
    1.0267    0.8099    0.0000 C   0  0  0  0  0  0  0  0  0  0  0  0
    2.4765    1.1945    0.0000 C   0  0  0  0  0  0  0  0  0  0  0  0
    3.5345    0.1312    0.0000 C   0  0  0  0  0  0  0  0  0  0  0  0
    4.9844    0.5158    0.0000 C   0  0  0  0  0  0  0  0  0  0  0  0
    6.4342    0.9004    0.0000 N   0  0  0  0  0  0  0  0  0  0  0  0
    3.1426   -1.3167    0.0000 C   0  0  0  0  0  0  0  0  0  0  0  0
    1.6928   -1.7013    0.0000 C   0  0  0  0  0  0  0  0  0  0  0  0
   -4.3809    0.7195    0.0000 C   0  0  0  0  0  0  0  0  0  0  0  0
   -3.9890    2.1674    0.0000 O   0  0  0  0  0  0  0  0  0  0  0  0
   -5.8308    0.3349    0.0000 O   0  0  0  0  0  0  0  0  0  0  0  0
  2  1  1  6
  2  3  1  0
  3  4  1  0
  4  5  1  0
  5  6  1  0
  6  7  2  0
  7  8  1  0
  8  9  1  0
  9 10  3  0
  8 11  2  0
 11 12  1  0
  2 13  1  0
 13 14  2  0
 13 15  1  0
 12  5  2  0
M  END
>  <rName>  (1610) 
hPhe_4CN

>  <PQ_SYMBOL>  (1610) 
hPhe_4CN

>  <FULL_NAME>  (1610) 
(S)-2-amino-4-(4-cyanophenyl)butanoic acid

>  <IUPAC_CONDENSED>  (1610) 
hPhe(4-CN)

>  <IUPAC>  (1610) 
(2S)-2-amino-4-(4-(nitrilomethyl)phenyl)butanoic acid

>  <TYPE>  (1610) 
Backbone

>  <CLASS>  (1610) 
alpha

>  <ANALOG>  (1610) 
Phe

>  <MOL_WT>  (1610) 
204.22899999999998

>  <LOGP>  (1610) 
0.9027799999999999

>  <TPSA>  (1610) 
87.11

>  <POPULARITY>  (1610) 
5.3

>  <PROTECTED>  (1610) 
TRUE

>  <SMILES>  (1610) 
N[C@@H](CCc1(ccc(C#N)cc1))C(=O)O

>  <INCHIKEY>  (1610) 
KCYCPUKPRHBVCZ-JTQLQIEISA-N

$$$$
Nvinyl-G
     RDKit          2D

  7  6  0  0  0  0  0  0  0  0999 V2000
    0.9202    0.1603    0.0000 N   0  0  0  0  0  0  0  0  0  0  0  0
    2.2602   -0.5139    0.0000 C   0  0  0  0  0  0  0  0  0  0  0  0
    3.5140    0.3095    0.0000 C   0  0  0  0  0  0  0  0  0  0  0  0
   -0.3336   -0.6631    0.0000 C   0  0  0  0  0  0  0  0  0  0  0  0
   -1.6736    0.0110    0.0000 C   0  0  0  0  0  0  0  0  0  0  0  0
   -1.7598    1.5085    0.0000 O   0  0  0  0  0  0  0  0  0  0  0  0
   -2.9274   -0.8124    0.0000 O   0  0  0  0  0  0  0  0  0  0  0  0
  1  2  1  0
  2  3  2  0
  1  4  1  0
  4  5  1  0
  5  6  2  0
  5  7  1  0
M  END
>  <rName>  (1611) 
Nvinyl-G

>  <PQ_SYMBOL>  (1611) 
Nvinyl-G

>  <FULL_NAME>  (1611) 
N-vinylglycine

>  <IUPAC_CONDENSED>  (1611) 
vinyl-Gly

>  <IUPAC>  (1611) 
2-(ethenylamino)acetic acid

>  <TYPE>  (1611) 
Backbone

>  <CLASS>  (1611) 
alpha

>  <ANALOG>  (1611) 
Gly

>  <MOL_WT>  (1611) 
101.10499999999999

>  <LOGP>  (1611) 
-0.19590000000000024

>  <TPSA>  (1611) 
49.33

>  <POPULARITY>  (1611) 
10.4

>  <PROTECTED>  (1611) 
TRUE

>  <SMILES>  (1611) 
N(C=C)CC(=O)O

>  <INCHIKEY>  (1611) 
CUHFCSMYBZBTIT-UHFFFAOYSA-N

$$$$
D-Ala_pyrid2yl_5Me
     RDKit          2D

 13 13  0  0  0  0  0  0  0  0999 V2000
   -1.5766    1.6851    0.0000 N   0  0  0  0  0  0  0  0  0  0  0  0
   -2.0128    0.2500    0.0000 C   0  0  0  0  0  0  0  0  0  0  0  0
   -0.9880   -0.8454    0.0000 C   0  0  0  0  0  0  0  0  0  0  0  0
    0.4730   -0.5055    0.0000 C   0  0  0  0  0  0  0  0  0  0  0  0
    0.9092    0.9296    0.0000 C   0  0  0  0  0  0  0  0  0  0  0  0
    2.3702    1.2695    0.0000 C   0  0  0  0  0  0  0  0  0  0  0  0
    3.3950    0.1741    0.0000 C   0  0  0  0  0  0  0  0  0  0  0  0
    4.8560    0.5140    0.0000 C   0  0  0  0  0  0  0  0  0  0  0  0
    2.9588   -1.2611    0.0000 C   0  0  0  0  0  0  0  0  0  0  0  0
    1.4978   -1.6009    0.0000 N   0  0  0  0  0  0  0  0  0  0  0  0
   -3.4738   -0.0899    0.0000 C   0  0  0  0  0  0  0  0  0  0  0  0
   -3.9100   -1.5250    0.0000 O   0  0  0  0  0  0  0  0  0  0  0  0
   -4.4986    1.0055    0.0000 O   0  0  0  0  0  0  0  0  0  0  0  0
  2  1  1  6
  2  3  1  0
  3  4  1  0
  4  5  1  0
  5  6  2  0
  6  7  1  0
  7  8  1  0
  7  9  2  0
  9 10  1  0
  2 11  1  0
 11 12  2  0
 11 13  1  0
 10  4  2  0
M  END
>  <rName>  (1612) 
D-Ala_pyrid2yl_5Me

>  <PQ_SYMBOL>  (1612) 
D-Ala_pyrid2yl_5Me

>  <FULL_NAME>  (1612) 
(R)-2-amino-3-(5-methylpyridin-2-yl)propanoic acid

>  <IUPAC_CONDENSED>  (1612) 
D-Ala(pyrid-2-yl(5-Me))

>  <IUPAC>  (1612) 
(2R)-2-amino-3-(5-methylpyridin-2-yl)propanoic acid

>  <TYPE>  (1612) 
Backbone

>  <CLASS>  (1612) 
alpha

>  <ANALOG>  (1612) 
Phe

>  <MOL_WT>  (1612) 
180.20699999999997

>  <LOGP>  (1612) 
0.3444200000000001

>  <TPSA>  (1612) 
76.21

>  <POPULARITY>  (1612) 
3.4

>  <PROTECTED>  (1612) 
TRUE

>  <SMILES>  (1612) 
N[C@H](Cc1(ccc(C)cn1))C(=O)O

>  <INCHIKEY>  (1612) 
KGYQCBBDLIEYEA-MRVPVSSYSA-N

$$$$
Phe_2ethynyl
     RDKit          2D

 14 14  0  0  0  0  0  0  0  0999 V2000
   -1.7887    1.9295    0.0000 N   0  0  0  0  0  0  0  0  0  0  0  0
   -1.9182    0.4351    0.0000 C   0  0  0  0  0  0  0  0  0  0  0  0
   -0.6887   -0.4243    0.0000 C   0  0  0  0  0  0  0  0  0  0  0  0
    0.6702    0.2108    0.0000 C   0  0  0  0  0  0  0  0  0  0  0  0
    0.7997    1.7052    0.0000 C   0  0  0  0  0  0  0  0  0  0  0  0
    2.1586    2.3403    0.0000 C   0  0  0  0  0  0  0  0  0  0  0  0
    3.3881    1.4809    0.0000 C   0  0  0  0  0  0  0  0  0  0  0  0
    3.2586   -0.0135    0.0000 C   0  0  0  0  0  0  0  0  0  0  0  0
    1.8997   -0.6485    0.0000 C   0  0  0  0  0  0  0  0  0  0  0  0
    1.7702   -2.1429    0.0000 C   0  0  0  0  0  0  0  0  0  0  0  0
    1.6407   -3.6373    0.0000 C   0  0  0  0  0  0  0  0  0  0  0  0
   -3.2771   -0.2000    0.0000 C   0  0  0  0  0  0  0  0  0  0  0  0
   -3.4066   -1.6944    0.0000 O   0  0  0  0  0  0  0  0  0  0  0  0
   -4.5065    0.6593    0.0000 O   0  0  0  0  0  0  0  0  0  0  0  0
  2  1  1  1
  2  3  1  0
  3  4  1  0
  4  5  2  0
  5  6  1  0
  6  7  2  0
  7  8  1  0
  8  9  2  0
  9 10  1  0
 10 11  3  0
  2 12  1  0
 12 13  2  0
 12 14  1  0
  9  4  1  0
M  END
>  <rName>  (1613) 
Phe_2ethynyl

>  <PQ_SYMBOL>  (1613) 
Phe_2ethynyl

>  <FULL_NAME>  (1613) 
(S)-2-amino-3-(2-ethynylphenyl)propanoic acid

>  <IUPAC_CONDENSED>  (1613) 
Phe(2-ethynyl)

>  <IUPAC>  (1613) 
(2S)-2-amino-3-(2-(ethynyl)phenyl)propanoic acid

>  <TYPE>  (1613) 
Backbone

>  <CLASS>  (1613) 
alpha

>  <ANALOG>  (1613) 
Phe

>  <MOL_WT>  (1613) 
189.21399999999997

>  <LOGP>  (1613) 
0.6223000000000001

>  <TPSA>  (1613) 
63.32000000000001

>  <POPULARITY>  (1613) 
2.8

>  <PROTECTED>  (1613) 
TRUE

>  <SMILES>  (1613) 
N[C@@H](Cc1(ccccc1C#C))C(=O)O

>  <INCHIKEY>  (1613) 
APKBULUIYAENSD-JTQLQIEISA-N

$$$$
D-hPhe_2OCF3
     RDKit          2D

 18 18  0  0  0  0  0  0  0  0999 V2000
   -3.0669   -2.2009    0.0000 N   0  0  0  0  0  0  0  0  0  0  0  0
   -3.3852   -0.7351    0.0000 C   0  0  0  0  0  0  0  0  0  0  0  0
   -2.2749    0.2735    0.0000 C   0  0  0  0  0  0  0  0  0  0  0  0
   -0.8463   -0.1838    0.0000 C   0  0  0  0  0  0  0  0  0  0  0  0
    0.2640    0.8248    0.0000 C   0  0  0  0  0  0  0  0  0  0  0  0
   -0.0543    2.2906    0.0000 C   0  0  0  0  0  0  0  0  0  0  0  0
    1.0560    3.2992    0.0000 C   0  0  0  0  0  0  0  0  0  0  0  0
    2.4846    2.8420    0.0000 C   0  0  0  0  0  0  0  0  0  0  0  0
    2.8029    1.3761    0.0000 C   0  0  0  0  0  0  0  0  0  0  0  0
    1.6926    0.3676    0.0000 C   0  0  0  0  0  0  0  0  0  0  0  0
    2.0109   -1.0983    0.0000 O   0  0  0  0  0  0  0  0  0  0  0  0
    3.4395   -1.5555    0.0000 C   0  0  0  0  0  0  0  0  0  0  0  0
    4.8681   -2.0128    0.0000 F   0  0  0  0  0  0  0  0  0  0  0  0
    2.9823   -2.9841    0.0000 F   0  0  0  0  0  0  0  0  0  0  0  0
    3.8968   -0.1269    0.0000 F   0  0  0  0  0  0  0  0  0  0  0  0
   -4.8138   -0.2779    0.0000 C   0  0  0  0  0  0  0  0  0  0  0  0
   -5.1321    1.1880    0.0000 O   0  0  0  0  0  0  0  0  0  0  0  0
   -5.9241   -1.2864    0.0000 O   0  0  0  0  0  0  0  0  0  0  0  0
  2  1  1  1
  2  3  1  0
  3  4  1  0
  4  5  1  0
  5  6  2  0
  6  7  1  0
  7  8  2  0
  8  9  1  0
  9 10  2  0
 10 11  1  0
 11 12  1  0
 12 13  1  0
 12 14  1  0
 12 15  1  0
  2 16  1  0
 16 17  2  0
 16 18  1  0
 10  5  1  0
M  END
>  <rName>  (1614) 
D-hPhe_2OCF3

>  <PQ_SYMBOL>  (1614) 
D-hPhe_2OCF3

>  <FULL_NAME>  (1614) 
(R)-2-amino-4-(2-(trifluoromethoxy)phenyl)butanoic acid

>  <IUPAC_CONDENSED>  (1614) 
D-hPhe(2-OCF3)

>  <IUPAC>  (1614) 
(2R)-2-amino-4-(2-((trifluoromethyl)oxy)phenyl)butanoic acid

>  <TYPE>  (1614) 
Backbone

>  <CLASS>  (1614) 
alpha

>  <ANALOG>  (1614) 
Tyr

>  <MOL_WT>  (1614) 
263.2149999999999

>  <LOGP>  (1614) 
1.9297

>  <TPSA>  (1614) 
72.55

>  <POPULARITY>  (1614) 
2.7

>  <PROTECTED>  (1614) 
TRUE

>  <SMILES>  (1614) 
N[C@H](CCc1(ccccc1OC(F)(F)F))C(=O)O

>  <INCHIKEY>  (1614) 
AKBSJHPDJHJGOW-MRVPVSSYSA-N

$$$$
Ala_pyrid2yl_4Me
     RDKit          2D

 13 13  0  0  0  0  0  0  0  0999 V2000
   -1.2997    1.6200    0.0000 N   0  0  0  0  0  0  0  0  0  0  0  0
   -1.8436    0.2221    0.0000 C   0  0  0  0  0  0  0  0  0  0  0  0
   -0.9049   -0.9479    0.0000 C   0  0  0  0  0  0  0  0  0  0  0  0
    0.5777   -0.7200    0.0000 C   0  0  0  0  0  0  0  0  0  0  0  0
    1.1215    0.6779    0.0000 C   0  0  0  0  0  0  0  0  0  0  0  0
    2.6041    0.9059    0.0000 C   0  0  0  0  0  0  0  0  0  0  0  0
    3.1480    2.3038    0.0000 C   0  0  0  0  0  0  0  0  0  0  0  0
    3.5428   -0.2641    0.0000 C   0  0  0  0  0  0  0  0  0  0  0  0
    2.9989   -1.6621    0.0000 C   0  0  0  0  0  0  0  0  0  0  0  0
    1.5163   -1.8900    0.0000 N   0  0  0  0  0  0  0  0  0  0  0  0
   -3.3262   -0.0059    0.0000 C   0  0  0  0  0  0  0  0  0  0  0  0
   -3.8701   -1.4038    0.0000 O   0  0  0  0  0  0  0  0  0  0  0  0
   -4.2649    1.1641    0.0000 O   0  0  0  0  0  0  0  0  0  0  0  0
  2  1  1  1
  2  3  1  0
  3  4  1  0
  4  5  1  0
  5  6  2  0
  6  7  1  0
  6  8  1  0
  8  9  2  0
  9 10  1  0
  2 11  1  0
 11 12  2  0
 11 13  1  0
 10  4  2  0
M  END
>  <rName>  (1615) 
Ala_pyrid2yl_4Me

>  <PQ_SYMBOL>  (1615) 
Ala_pyrid2yl_4Me

>  <FULL_NAME>  (1615) 
(S)-2-amino-3-(4-methylpyridin-2-yl)propanoic acid

>  <IUPAC_CONDENSED>  (1615) 
Ala(pyrid-2-yl(4-Me))

>  <IUPAC>  (1615) 
(2S)-2-amino-3-(4-methylpyridin-2-yl)propanoic acid

>  <TYPE>  (1615) 
Backbone

>  <CLASS>  (1615) 
alpha

>  <ANALOG>  (1615) 
Phe

>  <MOL_WT>  (1615) 
180.20699999999997

>  <LOGP>  (1615) 
0.3444200000000001

>  <TPSA>  (1615) 
76.21

>  <POPULARITY>  (1615) 
4.1

>  <PROTECTED>  (1615) 
TRUE

>  <SMILES>  (1615) 
N[C@@H](Cc1(cc(C)ccn1))C(=O)O

>  <INCHIKEY>  (1615) 
YRWVUIFELULWFC-QMMMGPOBSA-N

$$$$
DL-aMeGaba
     RDKit          2D

  8  7  0  0  0  0  0  0  0  0999 V2000
    2.2678   -1.4730    0.0000 N   0  0  0  0  0  0  0  0  0  0  0  0
    1.9843   -0.0000    0.0000 C   0  0  0  0  0  0  0  0  0  0  0  0
    3.1182    0.9820    0.0000 C   0  0  0  0  0  0  0  0  0  0  0  0
    0.5669    0.4910    0.0000 C   0  0  0  0  0  0  0  0  0  0  0  0
   -0.5669   -0.4910    0.0000 C   0  0  0  0  0  0  0  0  0  0  0  0
   -1.9843    0.0000    0.0000 C   0  0  0  0  0  0  0  0  0  0  0  0
   -2.2678    1.4730    0.0000 O   0  0  0  0  0  0  0  0  0  0  0  0
   -3.1182   -0.9820    0.0000 O   0  0  0  0  0  0  0  0  0  0  0  0
  1  2  1  0
  2  3  1  0
  2  4  1  0
  4  5  1  0
  5  6  1  0
  6  7  2  0
  6  8  1  0
M  END
>  <rName>  (1616) 
DL-aMeGaba

>  <PQ_SYMBOL>  (1616) 
DL-aMeGaba

>  <FULL_NAME>  (1616) 
4-aminopentanoic acid

>  <IUPAC_CONDENSED>  (1616) 
DL-aMeGaba

>  <IUPAC>  (1616) 
4-aminopentanoic acid

>  <TYPE>  (1616) 
Backbone

>  <CLASS>  (1616) 
gamma

>  <ANALOG>  (1616) 
Ala

>  <MOL_WT>  (1616) 
117.14799999999998

>  <LOGP>  (1616) 
0.19839999999999985

>  <TPSA>  (1616) 
63.32000000000001

>  <POPULARITY>  (1616) 
18.1

>  <PROTECTED>  (1616) 
TRUE

>  <SMILES>  (1616) 
NC(C)CCC(=O)O

>  <INCHIKEY>  (1616) 
ABSTXSZPGHDTAF-UHFFFAOYSA-N

$$$$
Nva_g_gdiF
     RDKit          2D

 10  9  0  0  0  0  0  0  0  0999 V2000
    0.5029    1.7542    0.0000 N   0  0  0  0  0  0  0  0  0  0  0  0
    0.7450    0.2738    0.0000 C   0  0  0  0  0  0  0  0  0  0  0  0
   -0.4160   -0.6760    0.0000 C   0  0  0  0  0  0  0  0  0  0  0  0
   -1.8190   -0.1455    0.0000 C   0  0  0  0  0  0  0  0  0  0  0  0
   -3.2221    0.3850    0.0000 C   0  0  0  0  0  0  0  0  0  0  0  0
   -2.3495   -1.5485    0.0000 F   0  0  0  0  0  0  0  0  0  0  0  0
   -1.2885    1.2576    0.0000 F   0  0  0  0  0  0  0  0  0  0  0  0
    2.1480   -0.2567    0.0000 C   0  0  0  0  0  0  0  0  0  0  0  0
    2.3901   -1.7370    0.0000 O   0  0  0  0  0  0  0  0  0  0  0  0
    3.3090    0.6932    0.0000 O   0  0  0  0  0  0  0  0  0  0  0  0
  2  1  1  6
  2  3  1  0
  3  4  1  0
  4  5  1  0
  4  6  1  0
  4  7  1  0
  2  8  1  0
  8  9  2  0
  8 10  1  0
M  END
>  <rName>  (1617) 
Nva_g_gdiF

>  <PQ_SYMBOL>  (1617) 
Nva_g_gdiF

>  <FULL_NAME>  (1617) 
(S)-2-amino-4,4-difluoropentanoic acid

>  <IUPAC_CONDENSED>  (1617) 
Nva(g,g-diF)

>  <IUPAC>  (1617) 
(2S)-2-amino-4,4-difluoropentanoic acid

>  <TYPE>  (1617) 
Backbone

>  <CLASS>  (1617) 
alpha

>  <ANALOG>  (1617) 
X

>  <MOL_WT>  (1617) 
153.12800000000001

>  <LOGP>  (1617) 
0.44359999999999994

>  <TPSA>  (1617) 
63.32000000000001

>  <POPULARITY>  (1617) 
6.5

>  <PROTECTED>  (1617) 
TRUE

>  <SMILES>  (1617) 
N[C@@H](CC(C)(F)F)C(=O)O

>  <INCHIKEY>  (1617) 
HNZGXYVBLJPLTD-VKHMYHEASA-N

$$$$
N_5carboxypentyl-G
     RDKit          2D

 13 12  0  0  0  0  0  0  0  0999 V2000
   -2.5981    0.1154    0.0000 N   0  0  0  0  0  0  0  0  0  0  0  0
   -1.2990   -0.6346    0.0000 C   0  0  0  0  0  0  0  0  0  0  0  0
    0.0000    0.1154    0.0000 C   0  0  0  0  0  0  0  0  0  0  0  0
    1.2990   -0.6346    0.0000 C   0  0  0  0  0  0  0  0  0  0  0  0
    2.5981    0.1154    0.0000 C   0  0  0  0  0  0  0  0  0  0  0  0
    3.8971   -0.6346    0.0000 C   0  0  0  0  0  0  0  0  0  0  0  0
    5.1962    0.1154    0.0000 C   0  0  0  0  0  0  0  0  0  0  0  0
    5.1962    1.6154    0.0000 O   0  0  0  0  0  0  0  0  0  0  0  0
    6.4952   -0.6346    0.0000 O   0  0  0  0  0  0  0  0  0  0  0  0
   -3.8971   -0.6346    0.0000 C   0  0  0  0  0  0  0  0  0  0  0  0
   -5.1962    0.1154    0.0000 C   0  0  0  0  0  0  0  0  0  0  0  0
   -5.1962    1.6154    0.0000 O   0  0  0  0  0  0  0  0  0  0  0  0
   -6.4952   -0.6346    0.0000 O   0  0  0  0  0  0  0  0  0  0  0  0
  1  2  1  0
  2  3  1  0
  3  4  1  0
  4  5  1  0
  5  6  1  0
  6  7  1  0
  7  8  2  0
  7  9  1  0
  1 10  1  0
 10 11  1  0
 11 12  2  0
 11 13  1  0
M  END
>  <rName>  (1618) 
N_5carboxypentyl-G

>  <PQ_SYMBOL>  (1618) 
N_5carboxypentyl-G

>  <FULL_NAME>  (1618) 
6-((carboxymethyl)amino)hexanoic acid

>  <IUPAC_CONDENSED>  (1618) 
5-carboxypentyl-Gly

>  <IUPAC>  (1618) 
6-((2-hydroxy-2-oxoethyl)amino)hexanoic acid

>  <TYPE>  (1618) 
Backbone

>  <CLASS>  (1618) 
alpha

>  <ANALOG>  (1618) 
Gly

>  <MOL_WT>  (1618) 
189.21099999999998

>  <LOGP>  (1618) 
0.30559999999999954

>  <TPSA>  (1618) 
86.63000000000001

>  <POPULARITY>  (1618) 
11.1

>  <PROTECTED>  (1618) 
TRUE

>  <SMILES>  (1618) 
N(CCCCCC(=O)O)CC(=O)O

>  <INCHIKEY>  (1618) 
TUOBABBAWKYTHA-UHFFFAOYSA-N

$$$$
pyrrolidin-2S-ylPr
     RDKit          2D

 10 10  0  0  0  0  0  0  0  0999 V2000
   -1.6644   -1.1391    0.0000 N   0  0  0  0  0  0  0  0  0  0  0  0
   -1.1088    0.2543    0.0000 C   0  0  0  0  0  0  0  0  0  0  0  0
   -2.2623    1.2132    0.0000 C   0  0  0  0  0  0  0  0  0  0  0  0
   -3.5307    0.4124    0.0000 C   0  0  0  0  0  0  0  0  0  0  0  0
   -3.1612   -1.0413    0.0000 C   0  0  0  0  0  0  0  0  0  0  0  0
    0.3449    0.6238    0.0000 C   0  0  0  0  0  0  0  0  0  0  0  0
    1.3919   -0.4504    0.0000 C   0  0  0  0  0  0  0  0  0  0  0  0
    2.8456   -0.0808    0.0000 C   0  0  0  0  0  0  0  0  0  0  0  0
    3.2525    1.3629    0.0000 O   0  0  0  0  0  0  0  0  0  0  0  0
    3.8925   -1.1550    0.0000 O   0  0  0  0  0  0  0  0  0  0  0  0
  1  2  1  0
  2  3  1  0
  3  4  1  0
  4  5  1  0
  2  6  1  1
  6  7  1  0
  7  8  1  0
  8  9  2  0
  8 10  1  0
  5  1  1  0
M  END
>  <rName>  (1619) 
pyrrolidin-2S-ylPr

>  <PQ_SYMBOL>  (1619) 
pyrrolidin-2S-ylPr

>  <FULL_NAME>  (1619) 
(S)-3-(pyrrolidin-2-yl)propanoic acid

>  <IUPAC_CONDENSED>  (1619) 
pyrrolidin-2S-ylPr

>  <IUPAC>  (1619) 
3-((2S)-pyrrolidin-2-yl)propanoic acid

>  <TYPE>  (1619) 
Backbone

>  <CLASS>  (1619) 
gamma

>  <ANALOG>  (1619) 
Pro

>  <MOL_WT>  (1619) 
143.186

>  <LOGP>  (1619) 
0.6032

>  <TPSA>  (1619) 
49.33

>  <POPULARITY>  (1619) 
11.4

>  <PROTECTED>  (1619) 
TRUE

>  <SMILES>  (1619) 
N1[C@@H](CCC1)CCC(=O)O

>  <INCHIKEY>  (1619) 
HIDODKLFTVMWQL-LURJTMIESA-N

$$$$
NMe-3Pal_6Me
     RDKit          2D

 14 14  0  0  0  0  0  0  0  0999 V2000
   -1.4939    1.3829    0.0000 N   0  0  0  0  0  0  0  0  0  0  0  0
   -2.5947    2.4018    0.0000 C   0  0  0  0  0  0  0  0  0  0  0  0
   -1.8260   -0.0799    0.0000 C   0  0  0  0  0  0  0  0  0  0  0  0
   -0.7252   -1.0989    0.0000 C   0  0  0  0  0  0  0  0  0  0  0  0
    0.7076   -0.6550    0.0000 C   0  0  0  0  0  0  0  0  0  0  0  0
    1.0397    0.8077    0.0000 C   0  0  0  0  0  0  0  0  0  0  0  0
    2.4725    1.2516    0.0000 C   0  0  0  0  0  0  0  0  0  0  0  0
    3.5733    0.2326    0.0000 C   0  0  0  0  0  0  0  0  0  0  0  0
    5.0062    0.6765    0.0000 C   0  0  0  0  0  0  0  0  0  0  0  0
    3.2413   -1.2302    0.0000 N   0  0  0  0  0  0  0  0  0  0  0  0
    1.8084   -1.6740    0.0000 C   0  0  0  0  0  0  0  0  0  0  0  0
   -3.2588   -0.5237    0.0000 C   0  0  0  0  0  0  0  0  0  0  0  0
   -3.5909   -1.9865    0.0000 O   0  0  0  0  0  0  0  0  0  0  0  0
   -4.3596    0.4952    0.0000 O   0  0  0  0  0  0  0  0  0  0  0  0
  1  2  1  0
  1  3  1  0
  3  4  1  1
  4  5  1  0
  5  6  1  0
  6  7  2  0
  7  8  1  0
  8  9  1  0
  8 10  2  0
 10 11  1  0
  3 12  1  0
 12 13  2  0
 12 14  1  0
 11  5  2  0
M  END
>  <rName>  (1620) 
NMe-3Pal_6Me

>  <PQ_SYMBOL>  (1620) 
NMe-3Pal_6Me

>  <FULL_NAME>  (1620) 
(S)-2-(methylamino)-3-(6-methylpyridin-3-yl)propanoic acid

>  <IUPAC_CONDENSED>  (1620) 
Me-3Pal(6-Me)

>  <IUPAC>  (1620) 
(2S)-2-(methylamino)-3-(6-methylpyridin-3-yl)propanoic acid

>  <TYPE>  (1620) 
Backbone

>  <CLASS>  (1620) 
alpha

>  <ANALOG>  (1620) 
Phe

>  <MOL_WT>  (1620) 
194.23399999999998

>  <LOGP>  (1620) 
0.6051199999999999

>  <TPSA>  (1620) 
62.22

>  <POPULARITY>  (1620) 
4.1

>  <PROTECTED>  (1620) 
TRUE

>  <SMILES>  (1620) 
N(C)[C@@H](Cc1(ccc(C)nc1))C(=O)O

>  <INCHIKEY>  (1620) 
GQTLMMCPKUQWBP-VIFPVBQESA-N

$$$$
Arg_pyrrolidino
     RDKit          2D

 16 16  0  0  0  0  0  0  0  0999 V2000
   -3.9368    1.9889    0.0000 N   0  0  0  0  0  0  0  0  0  0  0  0
   -4.0539    0.4935    0.0000 C   0  0  0  0  0  0  0  0  0  0  0  0
   -2.8174   -0.3556    0.0000 C   0  0  0  0  0  0  0  0  0  0  0  0
   -1.4638    0.2908    0.0000 C   0  0  0  0  0  0  0  0  0  0  0  0
   -0.2272   -0.5583    0.0000 C   0  0  0  0  0  0  0  0  0  0  0  0
    1.1264    0.0880    0.0000 N   0  0  0  0  0  0  0  0  0  0  0  0
    2.3629   -0.7611    0.0000 C   0  0  0  0  0  0  0  0  0  0  0  0
    2.2459   -2.2565    0.0000 N   0  0  0  0  0  0  0  0  0  0  0  0
    3.7166   -0.1148    0.0000 N   0  0  0  0  0  0  0  0  0  0  0  0
    5.0351   -0.8300    0.0000 C   0  0  0  0  0  0  0  0  0  0  0  0
    6.1227    0.2030    0.0000 C   0  0  0  0  0  0  0  0  0  0  0  0
    5.4764    1.5566    0.0000 C   0  0  0  0  0  0  0  0  0  0  0  0
    3.9893    1.3602    0.0000 C   0  0  0  0  0  0  0  0  0  0  0  0
   -5.4075   -0.1528    0.0000 C   0  0  0  0  0  0  0  0  0  0  0  0
   -5.5246   -1.6482    0.0000 O   0  0  0  0  0  0  0  0  0  0  0  0
   -6.6441    0.6963    0.0000 O   0  0  0  0  0  0  0  0  0  0  0  0
  2  1  1  1
  2  3  1  0
  3  4  1  0
  4  5  1  0
  5  6  1  0
  6  7  1  0
  7  8  2  0
  7  9  1  0
  9 10  1  0
 10 11  1  0
 11 12  1  0
 12 13  1  0
  2 14  1  0
 14 15  2  0
 14 16  1  0
 13  9  1  0
M  END
>  <rName>  (1621) 
Arg_pyrrolidino

>  <PQ_SYMBOL>  (1621) 
Arg_pyrrolidino

>  <FULL_NAME>  (1621) 
(S)-2-amino-5-(pyrrolidine-1-carboximidamido)pentanoic acid

>  <IUPAC_CONDENSED>  (1621) 
Arg(pyrrolidino)

>  <IUPAC>  (1621) 
(2S)-2-amino-5-(((imino)pyrrolidin-1-ylmethyl)amino)pentanoic acid

>  <TYPE>  (1621) 
Backbone

>  <CLASS>  (1621) 
alpha

>  <ANALOG>  (1621) 
Arg

>  <MOL_WT>  (1621) 
228.29599999999996

>  <LOGP>  (1621) 
-0.20132999999999895

>  <TPSA>  (1621) 
102.44000000000001

>  <POPULARITY>  (1621) 
2.6

>  <PROTECTED>  (1621) 
TRUE

>  <SMILES>  (1621) 
N[C@@H](CCCNC(=N)N1(CCCC1))C(=O)O

>  <INCHIKEY>  (1621) 
HDXHWGSPJWIYMM-QMMMGPOBSA-N

$$$$
D-homoPip
     RDKit          2D

 10 10  0  0  0  0  0  0  0  0999 V2000
   -0.0408   -1.3515    0.0000 N   0  0  0  0  0  0  0  0  0  0  0  0
    0.6100   -0.0000    0.0000 C   0  0  0  0  0  0  0  0  0  0  0  0
   -0.0408    1.3515    0.0000 C   0  0  0  0  0  0  0  0  0  0  0  0
   -1.5032    1.6852    0.0000 C   0  0  0  0  0  0  0  0  0  0  0  0
   -2.6760    0.7500    0.0000 C   0  0  0  0  0  0  0  0  0  0  0  0
   -2.6760   -0.7500    0.0000 C   0  0  0  0  0  0  0  0  0  0  0  0
   -1.5032   -1.6852    0.0000 C   0  0  0  0  0  0  0  0  0  0  0  0
    2.1100    0.0000    0.0000 C   0  0  0  0  0  0  0  0  0  0  0  0
    2.8600    1.2990    0.0000 O   0  0  0  0  0  0  0  0  0  0  0  0
    2.8600   -1.2990    0.0000 O   0  0  0  0  0  0  0  0  0  0  0  0
  1  2  1  0
  2  3  1  0
  3  4  1  0
  4  5  1  0
  5  6  1  0
  6  7  1  0
  2  8  1  6
  8  9  2  0
  8 10  1  0
  7  1  1  0
M  END
>  <rName>  (1622) 
D-homoPip

>  <PQ_SYMBOL>  (1622) 
D-homoPip

>  <FULL_NAME>  (1622) 
(R)-azepane-2-carboxylic acid

>  <IUPAC_CONDENSED>  (1622) 
D-homoPip

>  <IUPAC>  (1622) 
(2R)-1-azacycloheptane-2-carboxylic acid

>  <TYPE>  (1622) 
Backbone

>  <CLASS>  (1622) 
alpha

>  <ANALOG>  (1622) 
Pro

>  <MOL_WT>  (1622) 
143.186

>  <LOGP>  (1622) 
0.6032

>  <TPSA>  (1622) 
49.33

>  <POPULARITY>  (1622) 
5.7

>  <PROTECTED>  (1622) 
TRUE

>  <SMILES>  (1622) 
N1[C@H](CCCCC1)C(=O)O

>  <INCHIKEY>  (1622) 
OPFURXRZISKMJV-ZCFIWIBFSA-N

$$$$
NMe-Ser_cBu
     RDKit          2D

 12 12  0  0  0  0  0  0  0  0999 V2000
   -1.7864   -1.5652    0.0000 N   0  0  0  0  0  0  0  0  0  0  0  0
   -3.2208   -2.0038    0.0000 C   0  0  0  0  0  0  0  0  0  0  0  0
   -1.4491   -0.1036    0.0000 C   0  0  0  0  0  0  0  0  0  0  0  0
   -0.0147    0.3351    0.0000 C   0  0  0  0  0  0  0  0  0  0  0  0
    1.0824   -0.6878    0.0000 O   0  0  0  0  0  0  0  0  0  0  0  0
    2.5168   -0.2491    0.0000 C   0  0  0  0  0  0  0  0  0  0  0  0
    3.2209    1.0754    0.0000 C   0  0  0  0  0  0  0  0  0  0  0  0
    4.5454    0.3713    0.0000 C   0  0  0  0  0  0  0  0  0  0  0  0
    3.8413   -0.9532    0.0000 C   0  0  0  0  0  0  0  0  0  0  0  0
   -2.5462    0.9193    0.0000 C   0  0  0  0  0  0  0  0  0  0  0  0
   -2.2089    2.3809    0.0000 O   0  0  0  0  0  0  0  0  0  0  0  0
   -3.9807    0.4807    0.0000 O   0  0  0  0  0  0  0  0  0  0  0  0
  1  2  1  0
  1  3  1  0
  3  4  1  6
  4  5  1  0
  5  6  1  0
  6  7  1  0
  7  8  1  0
  8  9  1  0
  3 10  1  0
 10 11  2  0
 10 12  1  0
  9  6  1  0
M  END
>  <rName>  (1623) 
NMe-Ser_cBu

>  <PQ_SYMBOL>  (1623) 
NMe-Ser_cBu

>  <FULL_NAME>  (1623) 
O-cyclobutyl-N-methyl-L-serine

>  <IUPAC_CONDENSED>  (1623) 
Me-Ser(cBu)

>  <IUPAC>  (1623) 
(2S)-3-(cyclobutoxy)-2-(methylamino)propanoic acid

>  <TYPE>  (1623) 
Backbone

>  <CLASS>  (1623) 
alpha

>  <ANALOG>  (1623) 
Ser

>  <MOL_WT>  (1623) 
173.212

>  <LOGP>  (1623) 
0.22809999999999925

>  <TPSA>  (1623) 
58.56

>  <POPULARITY>  (1623) 
4.2

>  <PROTECTED>  (1623) 
TRUE

>  <SMILES>  (1623) 
N(C)[C@@H](COC1(CCC1))C(=O)O

>  <INCHIKEY>  (1623) 
BFRITKJPGLNNES-ZETCQYMHSA-N

$$$$
bAla-Gly
     RDKit          2D

 10  9  0  0  0  0  0  0  0  0999 V2000
   -0.4160   -0.3456    0.0000 N   0  0  0  0  0  0  0  0  0  0  0  0
    0.9342    0.3078    0.0000 C   0  0  0  0  0  0  0  0  0  0  0  0
    1.0434    1.8038    0.0000 O   0  0  0  0  0  0  0  0  0  0  0  0
    2.1752   -0.5348    0.0000 C   0  0  0  0  0  0  0  0  0  0  0  0
    3.5254    0.1186    0.0000 C   0  0  0  0  0  0  0  0  0  0  0  0
    4.7664   -0.7239    0.0000 N   0  0  0  0  0  0  0  0  0  0  0  0
   -1.6570    0.4970    0.0000 C   0  0  0  0  0  0  0  0  0  0  0  0
   -3.0072   -0.1565    0.0000 C   0  0  0  0  0  0  0  0  0  0  0  0
   -3.1164   -1.6525    0.0000 O   0  0  0  0  0  0  0  0  0  0  0  0
   -4.2481    0.6861    0.0000 O   0  0  0  0  0  0  0  0  0  0  0  0
  1  2  1  0
  2  3  2  0
  2  4  1  0
  4  5  1  0
  5  6  1  0
  1  7  1  0
  7  8  1  0
  8  9  2  0
  8 10  1  0
M  END
>  <rName>  (1624) 
bAla-Gly

>  <PQ_SYMBOL>  (1624) 
bAla-Gly

>  <FULL_NAME>  (1624) 
(3-aminopropanoyl)glycine

>  <IUPAC_CONDENSED>  (1624) 
bAla-Gly

>  <IUPAC>  (1624) 
2-(2-aminoethylcarbonylamino)acetic acid

>  <TYPE>  (1624) 
Backbone

>  <CLASS>  (1624) 
alpha

>  <ANALOG>  (1624) 
Gly

>  <MOL_WT>  (1624) 
146.14600000000002

>  <LOGP>  (1624) 
-1.463999999999999

>  <TPSA>  (1624) 
92.42

>  <POPULARITY>  (1624) 
13.8

>  <PROTECTED>  (1624) 
TRUE

>  <SMILES>  (1624) 
N(C(=O)CCN)CC(=O)O

>  <INCHIKEY>  (1624) 
QDHYJVJAGQLHBA-UHFFFAOYSA-N

$$$$
bAla-Lys
     RDKit          2D

 15 14  0  0  0  0  0  0  0  0999 V2000
    1.1076   -0.9712    0.0000 N   0  0  0  0  0  0  0  0  0  0  0  0
    2.4206   -0.2460    0.0000 C   0  0  0  0  0  0  0  0  0  0  0  0
    2.4491    1.2538    0.0000 O   0  0  0  0  0  0  0  0  0  0  0  0
    3.7052   -1.0205    0.0000 C   0  0  0  0  0  0  0  0  0  0  0  0
    5.0182   -0.2953    0.0000 C   0  0  0  0  0  0  0  0  0  0  0  0
    6.3028   -1.0698    0.0000 N   0  0  0  0  0  0  0  0  0  0  0  0
   -0.1770   -0.1967    0.0000 C   0  0  0  0  0  0  0  0  0  0  0  0
   -1.4900   -0.9219    0.0000 C   0  0  0  0  0  0  0  0  0  0  0  0
   -2.7746   -0.1474    0.0000 C   0  0  0  0  0  0  0  0  0  0  0  0
   -4.0876   -0.8726    0.0000 C   0  0  0  0  0  0  0  0  0  0  0  0
   -5.3722   -0.0981    0.0000 C   0  0  0  0  0  0  0  0  0  0  0  0
   -6.6852   -0.8233    0.0000 N   0  0  0  0  0  0  0  0  0  0  0  0
   -0.1485    1.3031    0.0000 C   0  0  0  0  0  0  0  0  0  0  0  0
    1.1645    2.0283    0.0000 O   0  0  0  0  0  0  0  0  0  0  0  0
   -1.4331    2.0776    0.0000 O   0  0  0  0  0  0  0  0  0  0  0  0
  1  2  1  0
  2  3  2  0
  2  4  1  0
  4  5  1  0
  5  6  1  0
  1  7  1  0
  7  8  1  1
  8  9  1  0
  9 10  1  0
 10 11  1  0
 11 12  1  0
  7 13  1  0
 13 14  2  0
 13 15  1  0
M  END
>  <rName>  (1625) 
bAla-Lys

>  <PQ_SYMBOL>  (1625) 
bAla-Lys

>  <FULL_NAME>  (1625) 
(3-aminopropanoyl)-L-lysine

>  <IUPAC_CONDENSED>  (1625) 
bAla-Lys

>  <IUPAC>  (1625) 
(2S)-6-amino-2-(2-aminoethylcarbonylamino)hexanoic acid

>  <TYPE>  (1625) 
Backbone

>  <CLASS>  (1625) 
alpha

>  <ANALOG>  (1625) 
Lys

>  <MOL_WT>  (1625) 
217.26899999999998

>  <LOGP>  (1625) 
-0.9663999999999981

>  <TPSA>  (1625) 
118.44000000000001

>  <POPULARITY>  (1625) 
6.6

>  <PROTECTED>  (1625) 
TRUE

>  <SMILES>  (1625) 
N(C(=O)CCN)[C@@H](CCCCN)C(=O)O

>  <INCHIKEY>  (1625) 
PLDCWKCPEXNWJH-ZETCQYMHSA-N

$$$$
bAla-Phe
     RDKit          2D

 17 17  0  0  0  0  0  0  0  0999 V2000
   -0.6131    0.0745    0.0000 N   0  0  0  0  0  0  0  0  0  0  0  0
   -2.1022    0.2554    0.0000 C   0  0  0  0  0  0  0  0  0  0  0  0
   -3.0034   -0.9437    0.0000 O   0  0  0  0  0  0  0  0  0  0  0  0
   -2.6901    1.6354    0.0000 C   0  0  0  0  0  0  0  0  0  0  0  0
   -4.1791    1.8163    0.0000 C   0  0  0  0  0  0  0  0  0  0  0  0
   -4.7670    3.1963    0.0000 N   0  0  0  0  0  0  0  0  0  0  0  0
   -0.0253   -1.3055    0.0000 C   0  0  0  0  0  0  0  0  0  0  0  0
    1.4638   -1.4864    0.0000 C   0  0  0  0  0  0  0  0  0  0  0  0
    2.3650   -0.2873    0.0000 C   0  0  0  0  0  0  0  0  0  0  0  0
    1.7771    1.0927    0.0000 C   0  0  0  0  0  0  0  0  0  0  0  0
    2.6783    2.2918    0.0000 C   0  0  0  0  0  0  0  0  0  0  0  0
    4.1673    2.1109    0.0000 C   0  0  0  0  0  0  0  0  0  0  0  0
    4.7552    0.7309    0.0000 C   0  0  0  0  0  0  0  0  0  0  0  0
    3.8540   -0.4682    0.0000 C   0  0  0  0  0  0  0  0  0  0  0  0
   -0.9265   -2.5046    0.0000 C   0  0  0  0  0  0  0  0  0  0  0  0
   -0.3386   -3.8846    0.0000 O   0  0  0  0  0  0  0  0  0  0  0  0
   -2.4155   -2.3237    0.0000 O   0  0  0  0  0  0  0  0  0  0  0  0
  1  2  1  0
  2  3  2  0
  2  4  1  0
  4  5  1  0
  5  6  1  0
  1  7  1  0
  7  8  1  1
  8  9  1  0
  9 10  2  0
 10 11  1  0
 11 12  2  0
 12 13  1  0
 13 14  2  0
  7 15  1  0
 15 16  2  0
 15 17  1  0
 14  9  1  0
M  END
>  <rName>  (1626) 
bAla-Phe

>  <PQ_SYMBOL>  (1626) 
bAla-Phe

>  <FULL_NAME>  (1626) 
(3-aminopropanoyl)-L-phenylalanine

>  <IUPAC_CONDENSED>  (1626) 
bAla-Phe

>  <IUPAC>  (1626) 
(2S)-2-(2-aminoethylcarbonylamino)-3-phenylpropanoic acid

>  <TYPE>  (1626) 
Backbone

>  <CLASS>  (1626) 
alpha

>  <ANALOG>  (1626) 
Phe

>  <MOL_WT>  (1626) 
236.27100000000004

>  <LOGP>  (1626) 
0.14730000000000038

>  <TPSA>  (1626) 
92.42

>  <POPULARITY>  (1626) 
8.3

>  <PROTECTED>  (1626) 
TRUE

>  <SMILES>  (1626) 
N(C(=O)CCN)[C@@H](Cc1(ccccc1))C(=O)O

>  <INCHIKEY>  (1626) 
FLJLAJANCPPHDW-JTQLQIEISA-N

$$$$
bAla_3RBn_2Cl
     RDKit          2D

 14 14  0  0  0  0  0  0  0  0999 V2000
   -1.2485    1.3349    0.0000 N   0  0  0  0  0  0  0  0  0  0  0  0
   -1.3063   -0.1640    0.0000 C   0  0  0  0  0  0  0  0  0  0  0  0
   -0.0372   -0.9636    0.0000 C   0  0  0  0  0  0  0  0  0  0  0  0
    1.2898   -0.2643    0.0000 C   0  0  0  0  0  0  0  0  0  0  0  0
    1.3477    1.2346    0.0000 C   0  0  0  0  0  0  0  0  0  0  0  0
    2.6747    1.9339    0.0000 C   0  0  0  0  0  0  0  0  0  0  0  0
    3.9438    1.1344    0.0000 C   0  0  0  0  0  0  0  0  0  0  0  0
    3.8859   -0.3645    0.0000 C   0  0  0  0  0  0  0  0  0  0  0  0
    2.5589   -1.0638    0.0000 C   0  0  0  0  0  0  0  0  0  0  0  0
    2.5010   -2.5627    0.0000 Cl  0  0  0  0  0  0  0  0  0  0  0  0
   -2.6334   -0.8633    0.0000 C   0  0  0  0  0  0  0  0  0  0  0  0
   -3.9025   -0.0637    0.0000 C   0  0  0  0  0  0  0  0  0  0  0  0
   -3.8446    1.4351    0.0000 O   0  0  0  0  0  0  0  0  0  0  0  0
   -5.2295   -0.7631    0.0000 O   0  0  0  0  0  0  0  0  0  0  0  0
  2  1  1  6
  2  3  1  0
  3  4  1  0
  4  5  2  0
  5  6  1  0
  6  7  2  0
  7  8  1  0
  8  9  2  0
  9 10  1  0
  2 11  1  0
 11 12  1  0
 12 13  2  0
 12 14  1  0
  9  4  1  0
M  END
>  <rName>  (1627) 
bAla_3RBn_2Cl

>  <PQ_SYMBOL>  (1627) 
bAla_3RBn_2Cl

>  <FULL_NAME>  (1627) 
(R)-3-amino-4-(2-chlorophenyl)butanoic acid

>  <IUPAC_CONDENSED>  (1627) 
bAla(3R-Bn(2-Cl))

>  <IUPAC>  (1627) 
(3R)-3-amino-4-(2-chlorophenyl)butanoic acid

>  <TYPE>  (1627) 
Backbone

>  <CLASS>  (1627) 
beta

>  <ANALOG>  (1627) 
Phe

>  <MOL_WT>  (1627) 
213.66399999999993

>  <LOGP>  (1627) 
1.6845

>  <TPSA>  (1627) 
63.32000000000001

>  <POPULARITY>  (1627) 
4.8

>  <PROTECTED>  (1627) 
TRUE

>  <SMILES>  (1627) 
N[C@H](Cc1(ccccc1Cl))CC(=O)O

>  <INCHIKEY>  (1627) 
URIOIHMVAXZFMB-MRVPVSSYSA-N

$$$$
bAla_3Ph_4Ph
     RDKit          2D

 18 19  0  0  0  0  0  0  0  0999 V2000
   -3.5589   -1.8393    0.0000 N   0  0  0  0  0  0  0  0  0  0  0  0
   -2.9274   -0.4787    0.0000 C   0  0  0  0  0  0  0  0  0  0  0  0
   -1.4333   -0.3453    0.0000 C   0  0  0  0  0  0  0  0  0  0  0  0
   -0.8018    1.0153    0.0000 C   0  0  0  0  0  0  0  0  0  0  0  0
    0.6923    1.1486    0.0000 C   0  0  0  0  0  0  0  0  0  0  0  0
    1.5548   -0.0786    0.0000 C   0  0  0  0  0  0  0  0  0  0  0  0
    0.9233   -1.4391    0.0000 C   0  0  0  0  0  0  0  0  0  0  0  0
   -0.5708   -1.5725    0.0000 C   0  0  0  0  0  0  0  0  0  0  0  0
    3.0489    0.0548    0.0000 C   0  0  0  0  0  0  0  0  0  0  0  0
    3.9114   -1.1724    0.0000 C   0  0  0  0  0  0  0  0  0  0  0  0
    5.4055   -1.0390    0.0000 C   0  0  0  0  0  0  0  0  0  0  0  0
    6.0370    0.3216    0.0000 C   0  0  0  0  0  0  0  0  0  0  0  0
    5.1744    1.5488    0.0000 C   0  0  0  0  0  0  0  0  0  0  0  0
    3.6804    1.4154    0.0000 C   0  0  0  0  0  0  0  0  0  0  0  0
   -3.7899    0.7485    0.0000 C   0  0  0  0  0  0  0  0  0  0  0  0
   -5.2840    0.6151    0.0000 C   0  0  0  0  0  0  0  0  0  0  0  0
   -5.9155   -0.7455    0.0000 O   0  0  0  0  0  0  0  0  0  0  0  0
   -6.1465    1.8423    0.0000 O   0  0  0  0  0  0  0  0  0  0  0  0
  1  2  1  0
  2  3  1  0
  3  4  1  0
  4  5  2  0
  5  6  1  0
  6  7  2  0
  7  8  1  0
  6  9  1  0
  9 10  2  0
 10 11  1  0
 11 12  2  0
 12 13  1  0
 13 14  2  0
  2 15  1  0
 15 16  1  0
 16 17  2  0
 16 18  1  0
  8  3  2  0
 14  9  1  0
M  END
>  <rName>  (1628) 
bAla_3Ph_4Ph

>  <PQ_SYMBOL>  (1628) 
bAla_3Ph_4Ph

>  <FULL_NAME>  (1628) 
3-([1,1'-biphenyl]-4-yl)-3-aminopropanoic acid

>  <IUPAC_CONDENSED>  (1628) 
bAla(3-Ph(4-Ph))

>  <IUPAC>  (1628) 
3-amino-3-(4-phenylphenyl)propanoic acid

>  <TYPE>  (1628) 
Backbone

>  <CLASS>  (1628) 
beta

>  <ANALOG>  (1628) 
X

>  <MOL_WT>  (1628) 
241.29

>  <LOGP>  (1628) 
2.828100000000001

>  <TPSA>  (1628) 
63.32000000000001

>  <POPULARITY>  (1628) 
7.1

>  <PROTECTED>  (1628) 
TRUE

>  <SMILES>  (1628) 
NC(c1(ccc(cc1)c2(ccccc2)))CC(=O)O

>  <INCHIKEY>  (1628) 
BJZGTTDEOZUSRH-UHFFFAOYSA-N

$$$$
bAla_3RBn_24diCl
     RDKit          2D

 15 15  0  0  0  0  0  0  0  0999 V2000
   -1.5080    1.3251    0.0000 N   0  0  0  0  0  0  0  0  0  0  0  0
   -1.6741   -0.1657    0.0000 C   0  0  0  0  0  0  0  0  0  0  0  0
   -0.4660   -1.0549    0.0000 C   0  0  0  0  0  0  0  0  0  0  0  0
    0.9080   -0.4533    0.0000 C   0  0  0  0  0  0  0  0  0  0  0  0
    1.0741    1.0375    0.0000 C   0  0  0  0  0  0  0  0  0  0  0  0
    2.4481    1.6391    0.0000 C   0  0  0  0  0  0  0  0  0  0  0  0
    3.6562    0.7499    0.0000 C   0  0  0  0  0  0  0  0  0  0  0  0
    5.0303    1.3515    0.0000 Cl  0  0  0  0  0  0  0  0  0  0  0  0
    3.4901   -0.7409    0.0000 C   0  0  0  0  0  0  0  0  0  0  0  0
    2.1161   -1.3425    0.0000 C   0  0  0  0  0  0  0  0  0  0  0  0
    1.9500   -2.8333    0.0000 Cl  0  0  0  0  0  0  0  0  0  0  0  0
   -3.0482   -0.7673    0.0000 C   0  0  0  0  0  0  0  0  0  0  0  0
   -4.2562    0.1219    0.0000 C   0  0  0  0  0  0  0  0  0  0  0  0
   -4.0902    1.6127    0.0000 O   0  0  0  0  0  0  0  0  0  0  0  0
   -5.6303   -0.4797    0.0000 O   0  0  0  0  0  0  0  0  0  0  0  0
  2  1  1  6
  2  3  1  0
  3  4  1  0
  4  5  1  0
  5  6  2  0
  6  7  1  0
  7  8  1  0
  7  9  2  0
  9 10  1  0
 10 11  1  0
  2 12  1  0
 12 13  1  0
 13 14  2  0
 13 15  1  0
 10  4  2  0
M  END
>  <rName>  (1629) 
bAla_3RBn_24diCl

>  <PQ_SYMBOL>  (1629) 
bAla_3RBn_24diCl

>  <FULL_NAME>  (1629) 
(R)-3-amino-4-(2,4-dichlorophenyl)butanoic acid

>  <IUPAC_CONDENSED>  (1629) 
bAla(3R-Bn(2,4-diCl))

>  <IUPAC>  (1629) 
(3R)-3-amino-4-(2,4-dichlorophenyl)butanoic acid

>  <TYPE>  (1629) 
Backbone

>  <CLASS>  (1629) 
beta

>  <ANALOG>  (1629) 
Phe

>  <MOL_WT>  (1629) 
248.10899999999998

>  <LOGP>  (1629) 
2.3379000000000003

>  <TPSA>  (1629) 
63.32000000000001

>  <POPULARITY>  (1629) 
4.1

>  <PROTECTED>  (1629) 
TRUE

>  <SMILES>  (1629) 
N[C@H](Cc1(ccc(Cl)cc1Cl))CC(=O)O

>  <INCHIKEY>  (1629) 
TYJLKWUTGBOOBY-MRVPVSSYSA-N

$$$$
bAla_3RBn_34diCl
     RDKit          2D

 15 15  0  0  0  0  0  0  0  0999 V2000
   -1.7108    1.2179    0.0000 N   0  0  0  0  0  0  0  0  0  0  0  0
   -1.8532   -0.2753    0.0000 C   0  0  0  0  0  0  0  0  0  0  0  0
   -0.6312   -1.1453    0.0000 C   0  0  0  0  0  0  0  0  0  0  0  0
    0.7332   -0.5220    0.0000 C   0  0  0  0  0  0  0  0  0  0  0  0
    0.8756    0.9713    0.0000 C   0  0  0  0  0  0  0  0  0  0  0  0
    2.2399    1.5946    0.0000 C   0  0  0  0  0  0  0  0  0  0  0  0
    3.4619    0.7247    0.0000 C   0  0  0  0  0  0  0  0  0  0  0  0
    4.8263    1.3480    0.0000 Cl  0  0  0  0  0  0  0  0  0  0  0  0
    3.3195   -0.7686    0.0000 C   0  0  0  0  0  0  0  0  0  0  0  0
    4.5415   -1.6385    0.0000 Cl  0  0  0  0  0  0  0  0  0  0  0  0
    1.9552   -1.3919    0.0000 C   0  0  0  0  0  0  0  0  0  0  0  0
   -3.2175   -0.8987    0.0000 C   0  0  0  0  0  0  0  0  0  0  0  0
   -4.4395   -0.0287    0.0000 C   0  0  0  0  0  0  0  0  0  0  0  0
   -4.2971    1.4645    0.0000 O   0  0  0  0  0  0  0  0  0  0  0  0
   -5.8039   -0.6520    0.0000 O   0  0  0  0  0  0  0  0  0  0  0  0
  2  1  1  6
  2  3  1  0
  3  4  1  0
  4  5  1  0
  5  6  2  0
  6  7  1  0
  7  8  1  0
  7  9  2  0
  9 10  1  0
  9 11  1  0
  2 12  1  0
 12 13  1  0
 13 14  2  0
 13 15  1  0
 11  4  2  0
M  END
>  <rName>  (1630) 
bAla_3RBn_34diCl

>  <PQ_SYMBOL>  (1630) 
bAla_3RBn_34diCl

>  <FULL_NAME>  (1630) 
(R)-3-amino-4-(3,4-dichlorophenyl)butanoic acid

>  <IUPAC_CONDENSED>  (1630) 
bAla(3R-Bn(3,4-diCl))

>  <IUPAC>  (1630) 
(3R)-3-amino-4-(3,4-dichlorophenyl)butanoic acid

>  <TYPE>  (1630) 
Backbone

>  <CLASS>  (1630) 
beta

>  <ANALOG>  (1630) 
Phe

>  <MOL_WT>  (1630) 
248.10899999999998

>  <LOGP>  (1630) 
2.3379000000000003

>  <TPSA>  (1630) 
63.32000000000001

>  <POPULARITY>  (1630) 
4.9

>  <PROTECTED>  (1630) 
TRUE

>  <SMILES>  (1630) 
N[C@H](Cc1(ccc(Cl)c(Cl)c1))CC(=O)O

>  <INCHIKEY>  (1630) 
MVUQWYZNNRALPX-SSDOTTSWSA-N

$$$$
bAla_3RBn_4I
     RDKit          2D

 14 14  0  0  0  0  0  0  0  0999 V2000
   -1.3163    1.1838    0.0000 N   0  0  0  0  0  0  0  0  0  0  0  0
   -1.5499   -0.2979    0.0000 C   0  0  0  0  0  0  0  0  0  0  0  0
   -0.3836   -1.2411    0.0000 C   0  0  0  0  0  0  0  0  0  0  0  0
    1.0164   -0.7026    0.0000 C   0  0  0  0  0  0  0  0  0  0  0  0
    1.2501    0.7790    0.0000 C   0  0  0  0  0  0  0  0  0  0  0  0
    2.6501    1.3175    0.0000 C   0  0  0  0  0  0  0  0  0  0  0  0
    3.8164    0.3743    0.0000 C   0  0  0  0  0  0  0  0  0  0  0  0
    5.2165    0.9127    0.0000 I   0  0  0  0  0  0  0  0  0  0  0  0
    3.5828   -1.1074    0.0000 C   0  0  0  0  0  0  0  0  0  0  0  0
    2.1827   -1.6459    0.0000 C   0  0  0  0  0  0  0  0  0  0  0  0
   -2.9500   -0.8363    0.0000 C   0  0  0  0  0  0  0  0  0  0  0  0
   -4.1163    0.1069    0.0000 C   0  0  0  0  0  0  0  0  0  0  0  0
   -3.8826    1.5886    0.0000 O   0  0  0  0  0  0  0  0  0  0  0  0
   -5.5163   -0.4316    0.0000 O   0  0  0  0  0  0  0  0  0  0  0  0
  2  1  1  6
  2  3  1  0
  3  4  1  0
  4  5  1  0
  5  6  2  0
  6  7  1  0
  7  8  1  0
  7  9  2  0
  9 10  1  0
  2 11  1  0
 11 12  1  0
 12 13  2  0
 12 14  1  0
 10  4  2  0
M  END
>  <rName>  (1631) 
bAla_3RBn_4I

>  <PQ_SYMBOL>  (1631) 
bAla_3RBn_4I

>  <FULL_NAME>  (1631) 
(R)-3-amino-4-(4-iodophenyl)butanoic acid

>  <IUPAC_CONDENSED>  (1631) 
bAla(3R-Bn(4-I))

>  <IUPAC>  (1631) 
(3R)-3-amino-4-(4-iodophenyl)butanoic acid

>  <TYPE>  (1631) 
Backbone

>  <CLASS>  (1631) 
beta

>  <ANALOG>  (1631) 
Phe

>  <MOL_WT>  (1631) 
305.11500000000007

>  <LOGP>  (1631) 
1.6357000000000002

>  <TPSA>  (1631) 
63.32000000000001

>  <POPULARITY>  (1631) 
3.8

>  <PROTECTED>  (1631) 
TRUE

>  <SMILES>  (1631) 
N[C@H](Cc1(ccc(I)cc1))CC(=O)O

>  <INCHIKEY>  (1631) 
JZJBJZHUZJDMMU-SECBINFHSA-N

$$$$
bAla_3RBn_2Me
     RDKit          2D

 14 14  0  0  0  0  0  0  0  0999 V2000
   -1.2485    1.3349    0.0000 N   0  0  0  0  0  0  0  0  0  0  0  0
   -1.3063   -0.1640    0.0000 C   0  0  0  0  0  0  0  0  0  0  0  0
   -0.0372   -0.9636    0.0000 C   0  0  0  0  0  0  0  0  0  0  0  0
    1.2898   -0.2643    0.0000 C   0  0  0  0  0  0  0  0  0  0  0  0
    1.3477    1.2346    0.0000 C   0  0  0  0  0  0  0  0  0  0  0  0
    2.6747    1.9339    0.0000 C   0  0  0  0  0  0  0  0  0  0  0  0
    3.9438    1.1344    0.0000 C   0  0  0  0  0  0  0  0  0  0  0  0
    3.8859   -0.3645    0.0000 C   0  0  0  0  0  0  0  0  0  0  0  0
    2.5589   -1.0638    0.0000 C   0  0  0  0  0  0  0  0  0  0  0  0
    2.5010   -2.5627    0.0000 C   0  0  0  0  0  0  0  0  0  0  0  0
   -2.6334   -0.8633    0.0000 C   0  0  0  0  0  0  0  0  0  0  0  0
   -3.9025   -0.0637    0.0000 C   0  0  0  0  0  0  0  0  0  0  0  0
   -3.8446    1.4351    0.0000 O   0  0  0  0  0  0  0  0  0  0  0  0
   -5.2295   -0.7631    0.0000 O   0  0  0  0  0  0  0  0  0  0  0  0
  2  1  1  6
  2  3  1  0
  3  4  1  0
  4  5  2  0
  5  6  1  0
  6  7  2  0
  7  8  1  0
  8  9  2  0
  9 10  1  0
  2 11  1  0
 11 12  1  0
 12 13  2  0
 12 14  1  0
  9  4  1  0
M  END
>  <rName>  (1632) 
bAla_3RBn_2Me

>  <PQ_SYMBOL>  (1632) 
bAla_3RBn_2Me

>  <FULL_NAME>  (1632) 
(R)-3-amino-4-(o-tolyl)butanoic acid

>  <IUPAC_CONDENSED>  (1632) 
bAla(3R-Bn(2-Me))

>  <IUPAC>  (1632) 
(3R)-3-amino-4-(2-methylphenyl)butanoic acid

>  <TYPE>  (1632) 
Backbone

>  <CLASS>  (1632) 
beta

>  <ANALOG>  (1632) 
Phe

>  <MOL_WT>  (1632) 
193.24599999999995

>  <LOGP>  (1632) 
1.33952

>  <TPSA>  (1632) 
63.32000000000001

>  <POPULARITY>  (1632) 
6.3

>  <PROTECTED>  (1632) 
TRUE

>  <SMILES>  (1632) 
N[C@H](Cc1(ccccc1C))CC(=O)O

>  <INCHIKEY>  (1632) 
PBGLTHUKEHCADU-SNVBAGLBSA-N

$$$$
bAla_3RBn_3Me
     RDKit          2D

 14 14  0  0  0  0  0  0  0  0999 V2000
   -1.4366    1.2366    0.0000 N   0  0  0  0  0  0  0  0  0  0  0  0
   -1.4962   -0.2622    0.0000 C   0  0  0  0  0  0  0  0  0  0  0  0
   -0.2280   -1.0632    0.0000 C   0  0  0  0  0  0  0  0  0  0  0  0
    1.0998   -0.3654    0.0000 C   0  0  0  0  0  0  0  0  0  0  0  0
    1.1594    1.1334    0.0000 C   0  0  0  0  0  0  0  0  0  0  0  0
    2.4872    1.8312    0.0000 C   0  0  0  0  0  0  0  0  0  0  0  0
    3.7554    1.0302    0.0000 C   0  0  0  0  0  0  0  0  0  0  0  0
    3.6958   -0.4686    0.0000 C   0  0  0  0  0  0  0  0  0  0  0  0
    4.9641   -1.2696    0.0000 C   0  0  0  0  0  0  0  0  0  0  0  0
    2.3680   -1.1664    0.0000 C   0  0  0  0  0  0  0  0  0  0  0  0
   -2.8240   -0.9600    0.0000 C   0  0  0  0  0  0  0  0  0  0  0  0
   -4.0922   -0.1590    0.0000 C   0  0  0  0  0  0  0  0  0  0  0  0
   -4.0327    1.3398    0.0000 O   0  0  0  0  0  0  0  0  0  0  0  0
   -5.4200   -0.8568    0.0000 O   0  0  0  0  0  0  0  0  0  0  0  0
  2  1  1  6
  2  3  1  0
  3  4  1  0
  4  5  2  0
  5  6  1  0
  6  7  2  0
  7  8  1  0
  8  9  1  0
  8 10  2  0
  2 11  1  0
 11 12  1  0
 12 13  2  0
 12 14  1  0
 10  4  1  0
M  END
>  <rName>  (1633) 
bAla_3RBn_3Me

>  <PQ_SYMBOL>  (1633) 
bAla_3RBn_3Me

>  <FULL_NAME>  (1633) 
(R)-3-amino-4-(m-tolyl)butanoic acid

>  <IUPAC_CONDENSED>  (1633) 
bAla(3R-Bn(3-Me))

>  <IUPAC>  (1633) 
(3R)-3-amino-4-(3-methylphenyl)butanoic acid

>  <TYPE>  (1633) 
Backbone

>  <CLASS>  (1633) 
beta

>  <ANALOG>  (1633) 
Phe

>  <MOL_WT>  (1633) 
193.24599999999995

>  <LOGP>  (1633) 
1.33952

>  <TPSA>  (1633) 
63.32000000000001

>  <POPULARITY>  (1633) 
12.2

>  <PROTECTED>  (1633) 
TRUE

>  <SMILES>  (1633) 
N[C@H](Cc1(cccc(C)c1))CC(=O)O

>  <INCHIKEY>  (1633) 
SMOOMZALOMCYEF-SNVBAGLBSA-N

$$$$
bAla_3RMbzl
     RDKit          2D

 14 14  0  0  0  0  0  0  0  0999 V2000
   -1.3163    1.1838    0.0000 N   0  0  0  0  0  0  0  0  0  0  0  0
   -1.5499   -0.2979    0.0000 C   0  0  0  0  0  0  0  0  0  0  0  0
   -0.3836   -1.2411    0.0000 C   0  0  0  0  0  0  0  0  0  0  0  0
    1.0164   -0.7026    0.0000 C   0  0  0  0  0  0  0  0  0  0  0  0
    1.2501    0.7790    0.0000 C   0  0  0  0  0  0  0  0  0  0  0  0
    2.6501    1.3175    0.0000 C   0  0  0  0  0  0  0  0  0  0  0  0
    3.8164    0.3743    0.0000 C   0  0  0  0  0  0  0  0  0  0  0  0
    5.2165    0.9127    0.0000 C   0  0  0  0  0  0  0  0  0  0  0  0
    3.5828   -1.1074    0.0000 C   0  0  0  0  0  0  0  0  0  0  0  0
    2.1827   -1.6459    0.0000 C   0  0  0  0  0  0  0  0  0  0  0  0
   -2.9500   -0.8363    0.0000 C   0  0  0  0  0  0  0  0  0  0  0  0
   -4.1163    0.1069    0.0000 C   0  0  0  0  0  0  0  0  0  0  0  0
   -3.8826    1.5886    0.0000 O   0  0  0  0  0  0  0  0  0  0  0  0
   -5.5163   -0.4316    0.0000 O   0  0  0  0  0  0  0  0  0  0  0  0
  2  1  1  6
  2  3  1  0
  3  4  1  0
  4  5  1  0
  5  6  2  0
  6  7  1  0
  7  8  1  0
  7  9  2  0
  9 10  1  0
  2 11  1  0
 11 12  1  0
 12 13  2  0
 12 14  1  0
 10  4  2  0
M  END
>  <rName>  (1634) 
bAla_3RMbzl

>  <PQ_SYMBOL>  (1634) 
bAla_3RMbzl

>  <FULL_NAME>  (1634) 
(R)-3-amino-4-(p-tolyl)butanoic acid

>  <IUPAC_CONDENSED>  (1634) 
bAla(3R-Mbzl)

>  <IUPAC>  (1634) 
(3R)-3-amino-4-(4-methylphenyl)butanoic acid

>  <TYPE>  (1634) 
Backbone

>  <CLASS>  (1634) 
beta

>  <ANALOG>  (1634) 
Phe

>  <MOL_WT>  (1634) 
193.24599999999995

>  <LOGP>  (1634) 
1.3395200000000003

>  <TPSA>  (1634) 
63.32000000000001

>  <POPULARITY>  (1634) 
8.2

>  <PROTECTED>  (1634) 
TRUE

>  <SMILES>  (1634) 
N[C@H](Cc1(ccc(C)cc1))CC(=O)O

>  <INCHIKEY>  (1634) 
OCNPVFDANAYUCR-SNVBAGLBSA-N

$$$$
bAla_3RBn_23_45_6pentaF
     RDKit          2D

 18 18  0  0  0  0  0  0  0  0999 V2000
   -1.9160    1.1192    0.0000 N   0  0  0  0  0  0  0  0  0  0  0  0
   -2.0699   -0.3729    0.0000 C   0  0  0  0  0  0  0  0  0  0  0  0
   -0.8547   -1.2522    0.0000 C   0  0  0  0  0  0  0  0  0  0  0  0
    0.5144   -0.6395    0.0000 C   0  0  0  0  0  0  0  0  0  0  0  0
    0.6684    0.8526    0.0000 C   0  0  0  0  0  0  0  0  0  0  0  0
   -0.5468    1.7319    0.0000 F   0  0  0  0  0  0  0  0  0  0  0  0
    2.0375    1.4653    0.0000 C   0  0  0  0  0  0  0  0  0  0  0  0
    2.1915    2.9574    0.0000 F   0  0  0  0  0  0  0  0  0  0  0  0
    3.2527    0.5859    0.0000 C   0  0  0  0  0  0  0  0  0  0  0  0
    4.6219    1.1987    0.0000 F   0  0  0  0  0  0  0  0  0  0  0  0
    3.0988   -0.9061    0.0000 C   0  0  0  0  0  0  0  0  0  0  0  0
    4.3140   -1.7855    0.0000 F   0  0  0  0  0  0  0  0  0  0  0  0
    1.7296   -1.5189    0.0000 C   0  0  0  0  0  0  0  0  0  0  0  0
    1.5757   -3.0109    0.0000 F   0  0  0  0  0  0  0  0  0  0  0  0
   -3.4391   -0.9856    0.0000 C   0  0  0  0  0  0  0  0  0  0  0  0
   -4.6543   -0.1062    0.0000 C   0  0  0  0  0  0  0  0  0  0  0  0
   -4.5003    1.3858    0.0000 O   0  0  0  0  0  0  0  0  0  0  0  0
   -6.0234   -0.7190    0.0000 O   0  0  0  0  0  0  0  0  0  0  0  0
  2  1  1  6
  2  3  1  0
  3  4  1  0
  4  5  2  0
  5  6  1  0
  5  7  1  0
  7  8  1  0
  7  9  2  0
  9 10  1  0
  9 11  1  0
 11 12  1  0
 11 13  2  0
 13 14  1  0
  2 15  1  0
 15 16  1  0
 16 17  2  0
 16 18  1  0
 13  4  1  0
M  END
>  <rName>  (1635) 
bAla_3RBn_23_45_6pentaF

>  <PQ_SYMBOL>  (1635) 
bAla_3RBn_23_45_6pentaF

>  <FULL_NAME>  (1635) 
(R)-3-amino-4-(perfluorophenyl)butanoic acid

>  <IUPAC_CONDENSED>  (1635) 
bAla(3R-Bn(2,3,4,5,6-pentaF))

>  <IUPAC>  (1635) 
(3R)-3-amino-4-(2,3,4,5,6-pentafluorophenyl)butanoic acid

>  <TYPE>  (1635) 
Backbone

>  <CLASS>  (1635) 
beta

>  <ANALOG>  (1635) 
Phe

>  <MOL_WT>  (1635) 
269.1689999999999

>  <LOGP>  (1635) 
1.7266000000000001

>  <TPSA>  (1635) 
63.32000000000001

>  <POPULARITY>  (1635) 
3.3

>  <PROTECTED>  (1635) 
TRUE

>  <SMILES>  (1635) 
N[C@H](Cc1(c(F)c(F)c(F)c(F)c1F))CC(=O)O

>  <INCHIKEY>  (1635) 
IBSVXBXKRWGCRU-GSVOUGTGSA-N

$$$$
bAla_3RBn_3CN
     RDKit          2D

 15 15  0  0  0  0  0  0  0  0999 V2000
   -1.9504    1.2312    0.0000 N   0  0  0  0  0  0  0  0  0  0  0  0
   -1.8969   -0.2678    0.0000 C   0  0  0  0  0  0  0  0  0  0  0  0
   -0.5719   -0.9710    0.0000 C   0  0  0  0  0  0  0  0  0  0  0  0
    0.6995   -0.1752    0.0000 C   0  0  0  0  0  0  0  0  0  0  0  0
    0.6460    1.3239    0.0000 C   0  0  0  0  0  0  0  0  0  0  0  0
    1.9175    2.1198    0.0000 C   0  0  0  0  0  0  0  0  0  0  0  0
    3.2424    1.4166    0.0000 C   0  0  0  0  0  0  0  0  0  0  0  0
    3.2959   -0.0825    0.0000 C   0  0  0  0  0  0  0  0  0  0  0  0
    4.6209   -0.7856    0.0000 C   0  0  0  0  0  0  0  0  0  0  0  0
    5.9459   -1.4888    0.0000 N   0  0  0  0  0  0  0  0  0  0  0  0
    2.0245   -0.8783    0.0000 C   0  0  0  0  0  0  0  0  0  0  0  0
   -3.1684   -1.0637    0.0000 C   0  0  0  0  0  0  0  0  0  0  0  0
   -4.4933   -0.3605    0.0000 C   0  0  0  0  0  0  0  0  0  0  0  0
   -4.5468    1.1385    0.0000 O   0  0  0  0  0  0  0  0  0  0  0  0
   -5.7648   -1.1564    0.0000 O   0  0  0  0  0  0  0  0  0  0  0  0
  2  1  1  6
  2  3  1  0
  3  4  1  0
  4  5  2  0
  5  6  1  0
  6  7  2  0
  7  8  1  0
  8  9  1  0
  9 10  3  0
  8 11  2  0
  2 12  1  0
 12 13  1  0
 13 14  2  0
 13 15  1  0
 11  4  1  0
M  END
>  <rName>  (1636) 
bAla_3RBn_3CN

>  <PQ_SYMBOL>  (1636) 
bAla_3RBn_3CN

>  <FULL_NAME>  (1636) 
(R)-3-amino-4-(3-cyanophenyl)butanoic acid

>  <IUPAC_CONDENSED>  (1636) 
bAla(3R-Bn(3-CN))

>  <IUPAC>  (1636) 
(3R)-3-amino-4-(3-(nitrilomethyl)phenyl)butanoic acid

>  <TYPE>  (1636) 
Backbone

>  <CLASS>  (1636) 
beta

>  <ANALOG>  (1636) 
Phe

>  <MOL_WT>  (1636) 
204.22899999999996

>  <LOGP>  (1636) 
0.9027800000000001

>  <TPSA>  (1636) 
87.11

>  <POPULARITY>  (1636) 
3.6

>  <PROTECTED>  (1636) 
TRUE

>  <SMILES>  (1636) 
N[C@H](Cc1(cccc(C#N)c1))CC(=O)O

>  <INCHIKEY>  (1636) 
CSBSIUBNUHRWDO-SNVBAGLBSA-N

$$$$
bAla_3Sthien2ylmethyl
     RDKit          2D

 12 12  0  0  0  0  0  0  0  0999 V2000
   -0.6782    1.2367    0.0000 N   0  0  0  0  0  0  0  0  0  0  0  0
   -0.8112   -0.2574    0.0000 C   0  0  0  0  0  0  0  0  0  0  0  0
    0.4162   -1.1196    0.0000 C   0  0  0  0  0  0  0  0  0  0  0  0
    1.7766   -0.4878    0.0000 C   0  0  0  0  0  0  0  0  0  0  0  0
    3.0874   -1.2170    0.0000 C   0  0  0  0  0  0  0  0  0  0  0  0
    4.1860   -0.1957    0.0000 C   0  0  0  0  0  0  0  0  0  0  0  0
    3.5542    1.1647    0.0000 C   0  0  0  0  0  0  0  0  0  0  0  0
    2.0651    0.9842    0.0000 S   0  0  0  0  0  0  0  0  0  0  0  0
   -2.1716   -0.8892    0.0000 C   0  0  0  0  0  0  0  0  0  0  0  0
   -3.3991   -0.0270    0.0000 C   0  0  0  0  0  0  0  0  0  0  0  0
   -3.2660    1.4671    0.0000 O   0  0  0  0  0  0  0  0  0  0  0  0
   -4.7595   -0.6589    0.0000 O   0  0  0  0  0  0  0  0  0  0  0  0
  2  1  1  1
  2  3  1  0
  3  4  1  0
  4  5  2  0
  5  6  1  0
  6  7  2  0
  7  8  1  0
  2  9  1  0
  9 10  1  0
 10 11  2  0
 10 12  1  0
  8  4  1  0
M  END
>  <rName>  (1637) 
bAla_3Sthien2ylmethyl

>  <PQ_SYMBOL>  (1637) 
bAla_3Sthien2ylmethyl

>  <FULL_NAME>  (1637) 
(R)-3-amino-4-(thiophen-2-yl)butanoic acid

>  <IUPAC_CONDENSED>  (1637) 
bAla(3S-thien-2-ylmethyl)

>  <IUPAC>  (1637) 
(3R)-3-amino-4-(thiophen-2-yl)butanoic acid

>  <TYPE>  (1637) 
Backbone

>  <CLASS>  (1637) 
beta

>  <ANALOG>  (1637) 
Phe

>  <MOL_WT>  (1637) 
185.24799999999996

>  <LOGP>  (1637) 
1.0926

>  <TPSA>  (1637) 
63.32000000000001

>  <POPULARITY>  (1637) 
4.2

>  <PROTECTED>  (1637) 
TRUE

>  <SMILES>  (1637) 
N[C@@H](Cc1(cccs1))CC(=O)O

>  <INCHIKEY>  (1637) 
LRHQHHDPWZCVTR-LURJTMIESA-N

$$$$
bAla_3Rallyl
     RDKit          2D

  9  8  0  0  0  0  0  0  0  0999 V2000
   -0.1633    1.5188    0.0000 N   0  0  0  0  0  0  0  0  0  0  0  0
   -0.2877    0.0239    0.0000 C   0  0  0  0  0  0  0  0  0  0  0  0
   -1.6444   -0.6157    0.0000 C   0  0  0  0  0  0  0  0  0  0  0  0
   -2.8768    0.2394    0.0000 C   0  0  0  0  0  0  0  0  0  0  0  0
   -4.2336   -0.4002    0.0000 C   0  0  0  0  0  0  0  0  0  0  0  0
    0.9447   -0.8312    0.0000 C   0  0  0  0  0  0  0  0  0  0  0  0
    2.3014   -0.1915    0.0000 C   0  0  0  0  0  0  0  0  0  0  0  0
    2.4259    1.3033    0.0000 O   0  0  0  0  0  0  0  0  0  0  0  0
    3.5338   -1.0467    0.0000 O   0  0  0  0  0  0  0  0  0  0  0  0
  2  1  1  1
  2  3  1  0
  3  4  1  0
  4  5  2  0
  2  6  1  0
  6  7  1  0
  7  8  2  0
  7  9  1  0
M  END
>  <rName>  (1638) 
bAla_3Rallyl

>  <PQ_SYMBOL>  (1638) 
bAla_3Rallyl

>  <FULL_NAME>  (1638) 
(R)-3-aminohex-5-enoic acid

>  <IUPAC_CONDENSED>  (1638) 
bAla(3R-allyl)

>  <IUPAC>  (1638) 
(3R)-3-aminohex-5-enoic acid

>  <TYPE>  (1638) 
Backbone

>  <CLASS>  (1638) 
beta

>  <ANALOG>  (1638) 
Val

>  <MOL_WT>  (1638) 
129.15900000000002

>  <LOGP>  (1638) 
0.3645

>  <TPSA>  (1638) 
63.32000000000001

>  <POPULARITY>  (1638) 
14.4

>  <PROTECTED>  (1638) 
TRUE

>  <SMILES>  (1638) 
N[C@H](CC=C)CC(=O)O

>  <INCHIKEY>  (1638) 
UEMNCMYSSFWTCS-RXMQYKEDSA-N

$$$$
bAla_3SBn_4F
     RDKit          2D

 14 14  0  0  0  0  0  0  0  0999 V2000
   -1.3163    1.1838    0.0000 N   0  0  0  0  0  0  0  0  0  0  0  0
   -1.5499   -0.2979    0.0000 C   0  0  0  0  0  0  0  0  0  0  0  0
   -0.3836   -1.2411    0.0000 C   0  0  0  0  0  0  0  0  0  0  0  0
    1.0164   -0.7026    0.0000 C   0  0  0  0  0  0  0  0  0  0  0  0
    1.2501    0.7790    0.0000 C   0  0  0  0  0  0  0  0  0  0  0  0
    2.6501    1.3175    0.0000 C   0  0  0  0  0  0  0  0  0  0  0  0
    3.8164    0.3743    0.0000 C   0  0  0  0  0  0  0  0  0  0  0  0
    5.2165    0.9127    0.0000 F   0  0  0  0  0  0  0  0  0  0  0  0
    3.5828   -1.1074    0.0000 C   0  0  0  0  0  0  0  0  0  0  0  0
    2.1827   -1.6459    0.0000 C   0  0  0  0  0  0  0  0  0  0  0  0
   -2.9500   -0.8363    0.0000 C   0  0  0  0  0  0  0  0  0  0  0  0
   -4.1163    0.1069    0.0000 C   0  0  0  0  0  0  0  0  0  0  0  0
   -3.8826    1.5886    0.0000 O   0  0  0  0  0  0  0  0  0  0  0  0
   -5.5163   -0.4316    0.0000 O   0  0  0  0  0  0  0  0  0  0  0  0
  2  1  1  1
  2  3  1  0
  3  4  1  0
  4  5  1  0
  5  6  2  0
  6  7  1  0
  7  8  1  0
  7  9  2  0
  9 10  1  0
  2 11  1  0
 11 12  1  0
 12 13  2  0
 12 14  1  0
 10  4  2  0
M  END
>  <rName>  (1639) 
bAla_3SBn_4F

>  <PQ_SYMBOL>  (1639) 
bAla_3SBn_4F

>  <FULL_NAME>  (1639) 
(S)-3-amino-4-(4-fluorophenyl)butanoic acid

>  <IUPAC_CONDENSED>  (1639) 
bAla(3S-Bn(4-F))

>  <IUPAC>  (1639) 
(3S)-3-amino-4-(4-fluorophenyl)butanoic acid

>  <TYPE>  (1639) 
Backbone

>  <CLASS>  (1639) 
beta

>  <ANALOG>  (1639) 
Phe

>  <MOL_WT>  (1639) 
197.20899999999997

>  <LOGP>  (1639) 
1.1702000000000001

>  <TPSA>  (1639) 
63.32000000000001

>  <POPULARITY>  (1639) 
7.4

>  <PROTECTED>  (1639) 
TRUE

>  <SMILES>  (1639) 
N[C@@H](Cc1(ccc(F)cc1))CC(=O)O

>  <INCHIKEY>  (1639) 
MWAZHPYPJNEKID-VIFPVBQESA-N

$$$$
bAla_3SBn_4Br
     RDKit          2D

 14 14  0  0  0  0  0  0  0  0999 V2000
   -1.3163    1.1838    0.0000 N   0  0  0  0  0  0  0  0  0  0  0  0
   -1.5499   -0.2979    0.0000 C   0  0  0  0  0  0  0  0  0  0  0  0
   -0.3836   -1.2411    0.0000 C   0  0  0  0  0  0  0  0  0  0  0  0
    1.0164   -0.7026    0.0000 C   0  0  0  0  0  0  0  0  0  0  0  0
    1.2501    0.7790    0.0000 C   0  0  0  0  0  0  0  0  0  0  0  0
    2.6501    1.3175    0.0000 C   0  0  0  0  0  0  0  0  0  0  0  0
    3.8164    0.3743    0.0000 C   0  0  0  0  0  0  0  0  0  0  0  0
    5.2165    0.9127    0.0000 Br  0  0  0  0  0  0  0  0  0  0  0  0
    3.5828   -1.1074    0.0000 C   0  0  0  0  0  0  0  0  0  0  0  0
    2.1827   -1.6459    0.0000 C   0  0  0  0  0  0  0  0  0  0  0  0
   -2.9500   -0.8363    0.0000 C   0  0  0  0  0  0  0  0  0  0  0  0
   -4.1163    0.1069    0.0000 C   0  0  0  0  0  0  0  0  0  0  0  0
   -3.8826    1.5886    0.0000 O   0  0  0  0  0  0  0  0  0  0  0  0
   -5.5163   -0.4316    0.0000 O   0  0  0  0  0  0  0  0  0  0  0  0
  2  1  1  1
  2  3  1  0
  3  4  1  0
  4  5  1  0
  5  6  2  0
  6  7  1  0
  7  8  1  0
  7  9  2  0
  9 10  1  0
  2 11  1  0
 11 12  1  0
 12 13  2  0
 12 14  1  0
 10  4  2  0
M  END
>  <rName>  (1640) 
bAla_3SBn_4Br

>  <PQ_SYMBOL>  (1640) 
bAla_3SBn_4Br

>  <FULL_NAME>  (1640) 
(S)-3-amino-4-(4-bromophenyl)butanoic acid

>  <IUPAC_CONDENSED>  (1640) 
bAla(3S-Bn(4-Br))

>  <IUPAC>  (1640) 
(3S)-3-amino-4-(4-bromophenyl)butanoic acid

>  <TYPE>  (1640) 
Backbone

>  <CLASS>  (1640) 
beta

>  <ANALOG>  (1640) 
Phe

>  <MOL_WT>  (1640) 
258.11499999999995

>  <LOGP>  (1640) 
1.7936

>  <TPSA>  (1640) 
63.32000000000001

>  <POPULARITY>  (1640) 
6.6

>  <PROTECTED>  (1640) 
TRUE

>  <SMILES>  (1640) 
N[C@@H](Cc1(ccc(Br)cc1))CC(=O)O

>  <INCHIKEY>  (1640) 
DAUFDZAPQZNOGC-VIFPVBQESA-N

$$$$
bAla_3SBn_4NO2
     RDKit          2D

 16 16  0  0  0  0  0  0  0  0999 V2000
   -1.9908    1.1560    0.0000 N   0  0  0  0  0  0  0  0  0  0  0  0
   -2.3119   -0.3092    0.0000 C   0  0  0  0  0  0  0  0  0  0  0  0
   -1.2035   -1.3199    0.0000 C   0  0  0  0  0  0  0  0  0  0  0  0
    0.2260   -0.8653    0.0000 C   0  0  0  0  0  0  0  0  0  0  0  0
    0.5470    0.5999    0.0000 C   0  0  0  0  0  0  0  0  0  0  0  0
    1.9765    1.0545    0.0000 C   0  0  0  0  0  0  0  0  0  0  0  0
    3.0849    0.0439    0.0000 C   0  0  0  0  0  0  0  0  0  0  0  0
    2.7639   -1.4214    0.0000 C   0  0  0  0  0  0  0  0  0  0  0  0
    1.3344   -1.8759    0.0000 C   0  0  0  0  0  0  0  0  0  0  0  0
    4.5144    0.4985    0.0000 N   0  0  0  0  0  0  0  0  0  0  0  0
    4.8354    1.9637    0.0000 O   0  0  0  0  0  0  0  0  0  0  0  0
    5.6228   -0.5122    0.0000 O   0  0  0  0  0  0  0  0  0  0  0  0
   -3.7413   -0.7638    0.0000 C   0  0  0  0  0  0  0  0  0  0  0  0
   -4.8498    0.2468    0.0000 C   0  0  0  0  0  0  0  0  0  0  0  0
   -4.5287    1.7121    0.0000 O   0  0  0  0  0  0  0  0  0  0  0  0
   -6.2792   -0.2078    0.0000 O   0  0  0  0  0  0  0  0  0  0  0  0
  2  1  1  1
  2  3  1  0
  3  4  1  0
  4  5  1  0
  5  6  2  0
  6  7  1  0
  7  8  2  0
  8  9  1  0
  7 10  1  0
 10 11  2  0
 10 12  1  0
  2 13  1  0
 13 14  1  0
 14 15  2  0
 14 16  1  0
  9  4  2  0
M  CHG  2  10   1  12  -1
M  END
>  <rName>  (1641) 
bAla_3SBn_4NO2

>  <PQ_SYMBOL>  (1641) 
bAla_3SBn_4NO2

>  <FULL_NAME>  (1641) 
(S)-3-amino-4-(4-nitrophenyl)butanoic acid

>  <IUPAC_CONDENSED>  (1641) 
bAla(3S-Bn(4-NO2))

>  <IUPAC>  (1641) 
(3S)-3-amino-4-(4-nitrophenyl)butanoic acid

>  <TYPE>  (1641) 
Backbone

>  <CLASS>  (1641) 
beta

>  <ANALOG>  (1641) 
Phe

>  <MOL_WT>  (1641) 
224.21599999999992

>  <LOGP>  (1641) 
0.9393

>  <TPSA>  (1641) 
106.46

>  <POPULARITY>  (1641) 
3.2

>  <PROTECTED>  (1641) 
TRUE

>  <SMILES>  (1641) 
N[C@@H](Cc1(ccc(cc1)[N+](=O)[O-]))CC(=O)O

>  <INCHIKEY>  (1641) 
SMTCEKUITUZDPM-QMMMGPOBSA-N

$$$$
bAla_3SBn_3Me
     RDKit          2D

 14 14  0  0  0  0  0  0  0  0999 V2000
   -1.4366    1.2366    0.0000 N   0  0  0  0  0  0  0  0  0  0  0  0
   -1.4962   -0.2622    0.0000 C   0  0  0  0  0  0  0  0  0  0  0  0
   -0.2280   -1.0632    0.0000 C   0  0  0  0  0  0  0  0  0  0  0  0
    1.0998   -0.3654    0.0000 C   0  0  0  0  0  0  0  0  0  0  0  0
    1.1594    1.1334    0.0000 C   0  0  0  0  0  0  0  0  0  0  0  0
    2.4872    1.8312    0.0000 C   0  0  0  0  0  0  0  0  0  0  0  0
    3.7554    1.0302    0.0000 C   0  0  0  0  0  0  0  0  0  0  0  0
    3.6958   -0.4686    0.0000 C   0  0  0  0  0  0  0  0  0  0  0  0
    4.9641   -1.2696    0.0000 C   0  0  0  0  0  0  0  0  0  0  0  0
    2.3680   -1.1664    0.0000 C   0  0  0  0  0  0  0  0  0  0  0  0
   -2.8240   -0.9600    0.0000 C   0  0  0  0  0  0  0  0  0  0  0  0
   -4.0922   -0.1590    0.0000 C   0  0  0  0  0  0  0  0  0  0  0  0
   -4.0327    1.3398    0.0000 O   0  0  0  0  0  0  0  0  0  0  0  0
   -5.4200   -0.8568    0.0000 O   0  0  0  0  0  0  0  0  0  0  0  0
  2  1  1  1
  2  3  1  0
  3  4  1  0
  4  5  2  0
  5  6  1  0
  6  7  2  0
  7  8  1  0
  8  9  1  0
  8 10  2  0
  2 11  1  0
 11 12  1  0
 12 13  2  0
 12 14  1  0
 10  4  1  0
M  END
>  <rName>  (1642) 
bAla_3SBn_3Me

>  <PQ_SYMBOL>  (1642) 
bAla_3SBn_3Me

>  <FULL_NAME>  (1642) 
(S)-3-amino-4-(m-tolyl)butanoic acid

>  <IUPAC_CONDENSED>  (1642) 
bAla(3S-Bn(3-Me))

>  <IUPAC>  (1642) 
(3S)-3-amino-4-(3-methylphenyl)butanoic acid

>  <TYPE>  (1642) 
Backbone

>  <CLASS>  (1642) 
beta

>  <ANALOG>  (1642) 
Phe

>  <MOL_WT>  (1642) 
193.24599999999995

>  <LOGP>  (1642) 
1.33952

>  <TPSA>  (1642) 
63.32000000000001

>  <POPULARITY>  (1642) 
5.3

>  <PROTECTED>  (1642) 
TRUE

>  <SMILES>  (1642) 
N[C@@H](Cc1(cccc(C)c1))CC(=O)O

>  <INCHIKEY>  (1642) 
SMOOMZALOMCYEF-JTQLQIEISA-N

$$$$
THIQ3S-bAla
     RDKit          2D

 14 15  0  0  0  0  0  0  0  0999 V2000
   -0.9977    1.0836    0.0000 N   0  0  0  0  0  0  0  0  0  0  0  0
   -1.1667   -0.4068    0.0000 C   0  0  0  0  0  0  0  0  0  0  0  0
    0.0395   -1.2984    0.0000 C   0  0  0  0  0  0  0  0  0  0  0  0
    1.4148   -0.6996    0.0000 C   0  0  0  0  0  0  0  0  0  0  0  0
    2.6210   -1.5912    0.0000 C   0  0  0  0  0  0  0  0  0  0  0  0
    3.9963   -0.9924    0.0000 C   0  0  0  0  0  0  0  0  0  0  0  0
    4.1654    0.4980    0.0000 C   0  0  0  0  0  0  0  0  0  0  0  0
    2.9591    1.3897    0.0000 C   0  0  0  0  0  0  0  0  0  0  0  0
    1.5838    0.7908    0.0000 C   0  0  0  0  0  0  0  0  0  0  0  0
    0.3776    1.6825    0.0000 C   0  0  0  0  0  0  0  0  0  0  0  0
   -2.5420   -1.0056    0.0000 C   0  0  0  0  0  0  0  0  0  0  0  0
   -3.7483   -0.1140    0.0000 C   0  0  0  0  0  0  0  0  0  0  0  0
   -3.5792    1.3764    0.0000 O   0  0  0  0  0  0  0  0  0  0  0  0
   -5.1235   -0.7129    0.0000 O   0  0  0  0  0  0  0  0  0  0  0  0
  1  2  1  0
  2  3  1  0
  3  4  1  0
  4  5  2  0
  5  6  1  0
  6  7  2  0
  7  8  1  0
  8  9  2  0
  9 10  1  0
  2 11  1  1
 11 12  1  0
 12 13  2  0
 12 14  1  0
  9  4  1  0
 10  1  1  0
M  END
>  <rName>  (1643) 
THIQ3S-bAla

>  <PQ_SYMBOL>  (1643) 
THIQ3S-bAla

>  <FULL_NAME>  (1643) 
(S)-2-(1,2,3,4-tetrahydroisoquinolin-3-yl)acetic acid

>  <IUPAC_CONDENSED>  (1643) 
THIQ(3S)-bAla

>  <IUPAC>  (1643) 
2-((4S)-3-azabicyclo[4.4.0]deca-1(10),6,8-trien-4-yl)acetic acid

>  <TYPE>  (1643) 
Backbone

>  <CLASS>  (1643) 
beta

>  <ANALOG>  (1643) 
Pro

>  <MOL_WT>  (1643) 
191.22999999999993

>  <LOGP>  (1643) 
1.1756

>  <TPSA>  (1643) 
49.33

>  <POPULARITY>  (1643) 
7.1

>  <PROTECTED>  (1643) 
TRUE

>  <SMILES>  (1643) 
N2[C@@H](Cc1(ccccc1C2))CC(=O)O

>  <INCHIKEY>  (1643) 
QYYIBCOJRFOBDJ-JTQLQIEISA-N

$$$$
bAla_3SBn_23_45_6pentaF
     RDKit          2D

 18 18  0  0  0  0  0  0  0  0999 V2000
   -1.9160    1.1192    0.0000 N   0  0  0  0  0  0  0  0  0  0  0  0
   -2.0699   -0.3729    0.0000 C   0  0  0  0  0  0  0  0  0  0  0  0
   -0.8547   -1.2522    0.0000 C   0  0  0  0  0  0  0  0  0  0  0  0
    0.5144   -0.6395    0.0000 C   0  0  0  0  0  0  0  0  0  0  0  0
    0.6684    0.8526    0.0000 C   0  0  0  0  0  0  0  0  0  0  0  0
   -0.5468    1.7319    0.0000 F   0  0  0  0  0  0  0  0  0  0  0  0
    2.0375    1.4653    0.0000 C   0  0  0  0  0  0  0  0  0  0  0  0
    2.1915    2.9574    0.0000 F   0  0  0  0  0  0  0  0  0  0  0  0
    3.2527    0.5859    0.0000 C   0  0  0  0  0  0  0  0  0  0  0  0
    4.6219    1.1987    0.0000 F   0  0  0  0  0  0  0  0  0  0  0  0
    3.0988   -0.9061    0.0000 C   0  0  0  0  0  0  0  0  0  0  0  0
    4.3140   -1.7855    0.0000 F   0  0  0  0  0  0  0  0  0  0  0  0
    1.7296   -1.5189    0.0000 C   0  0  0  0  0  0  0  0  0  0  0  0
    1.5757   -3.0109    0.0000 F   0  0  0  0  0  0  0  0  0  0  0  0
   -3.4391   -0.9856    0.0000 C   0  0  0  0  0  0  0  0  0  0  0  0
   -4.6543   -0.1062    0.0000 C   0  0  0  0  0  0  0  0  0  0  0  0
   -4.5003    1.3858    0.0000 O   0  0  0  0  0  0  0  0  0  0  0  0
   -6.0234   -0.7190    0.0000 O   0  0  0  0  0  0  0  0  0  0  0  0
  2  1  1  1
  2  3  1  0
  3  4  1  0
  4  5  2  0
  5  6  1  0
  5  7  1  0
  7  8  1  0
  7  9  2  0
  9 10  1  0
  9 11  1  0
 11 12  1  0
 11 13  2  0
 13 14  1  0
  2 15  1  0
 15 16  1  0
 16 17  2  0
 16 18  1  0
 13  4  1  0
M  END
>  <rName>  (1644) 
bAla_3SBn_23_45_6pentaF

>  <PQ_SYMBOL>  (1644) 
bAla_3SBn_23_45_6pentaF

>  <FULL_NAME>  (1644) 
(S)-3-amino-4-(perfluorophenyl)butanoic acid

>  <IUPAC_CONDENSED>  (1644) 
bAla(3S-Bn(2,3,4,5,6-pentaF))

>  <IUPAC>  (1644) 
(3S)-3-amino-4-(2,3,4,5,6-pentafluorophenyl)butanoic acid

>  <TYPE>  (1644) 
Backbone

>  <CLASS>  (1644) 
beta

>  <ANALOG>  (1644) 
Phe

>  <MOL_WT>  (1644) 
269.1689999999999

>  <LOGP>  (1644) 
1.7266000000000001

>  <TPSA>  (1644) 
63.32000000000001

>  <POPULARITY>  (1644) 
2.9

>  <PROTECTED>  (1644) 
TRUE

>  <SMILES>  (1644) 
N[C@@H](Cc1(c(F)c(F)c(F)c(F)c1F))CC(=O)O

>  <INCHIKEY>  (1644) 
IBSVXBXKRWGCRU-VKHMYHEASA-N

$$$$
bAla_3Sbenzothiophen3yl
     RDKit          2D

 16 17  0  0  0  0  0  0  0  0999 V2000
   -2.2204   -1.3731    0.0000 N   0  0  0  0  0  0  0  0  0  0  0  0
   -2.0671    0.1190    0.0000 C   0  0  0  0  0  0  0  0  0  0  0  0
   -0.6982    0.7323    0.0000 C   0  0  0  0  0  0  0  0  0  0  0  0
    0.5173   -0.1465    0.0000 C   0  0  0  0  0  0  0  0  0  0  0  0
    0.5208   -1.6465    0.0000 C   0  0  0  0  0  0  0  0  0  0  0  0
    1.9485   -2.1067    0.0000 S   0  0  0  0  0  0  0  0  0  0  0  0
    2.8273   -0.8912    0.0000 C   0  0  0  0  0  0  0  0  0  0  0  0
    4.3188   -0.7309    0.0000 C   0  0  0  0  0  0  0  0  0  0  0  0
    4.9257    0.6408    0.0000 C   0  0  0  0  0  0  0  0  0  0  0  0
    4.0412    1.8523    0.0000 C   0  0  0  0  0  0  0  0  0  0  0  0
    2.5498    1.6920    0.0000 C   0  0  0  0  0  0  0  0  0  0  0  0
    1.9428    0.3203    0.0000 C   0  0  0  0  0  0  0  0  0  0  0  0
   -3.2827    0.9979    0.0000 C   0  0  0  0  0  0  0  0  0  0  0  0
   -4.6516    0.3846    0.0000 C   0  0  0  0  0  0  0  0  0  0  0  0
   -4.8049   -1.1076    0.0000 O   0  0  0  0  0  0  0  0  0  0  0  0
   -5.8672    1.2634    0.0000 O   0  0  0  0  0  0  0  0  0  0  0  0
  2  1  1  6
  2  3  1  0
  3  4  1  0
  4  5  2  0
  5  6  1  0
  6  7  1  0
  7  8  2  0
  8  9  1  0
  9 10  2  0
 10 11  1  0
 11 12  2  0
  2 13  1  0
 13 14  1  0
 14 15  2  0
 14 16  1  0
 12  7  1  0
 12  4  1  0
M  END
>  <rName>  (1645) 
bAla_3Sbenzothiophen3yl

>  <PQ_SYMBOL>  (1645) 
bAla_3Sbenzothiophen3yl

>  <FULL_NAME>  (1645) 
(S)-3-amino-4-(benzo[b]thiophen-3-yl)butanoic acid

>  <IUPAC_CONDENSED>  (1645) 
bAla(3S-benzothiophen-3-yl)

>  <IUPAC>  (1645) 
(3S)-3-amino-4-(1-benzothiophen-3-yl)butanoic acid

>  <TYPE>  (1645) 
Backbone

>  <CLASS>  (1645) 
beta

>  <ANALOG>  (1645) 
Phe

>  <MOL_WT>  (1645) 
235.308

>  <LOGP>  (1645) 
2.2458

>  <TPSA>  (1645) 
63.32000000000001

>  <POPULARITY>  (1645) 
3.4

>  <PROTECTED>  (1645) 
TRUE

>  <SMILES>  (1645) 
N[C@@H](Cc2(csc1(ccccc12)))CC(=O)O

>  <INCHIKEY>  (1645) 
FGCYUNZSPGBIGH-VIFPVBQESA-N

$$$$
bAla_3SBn_24diCl
     RDKit          2D

 15 15  0  0  0  0  0  0  0  0999 V2000
   -1.5080    1.3251    0.0000 N   0  0  0  0  0  0  0  0  0  0  0  0
   -1.6741   -0.1657    0.0000 C   0  0  0  0  0  0  0  0  0  0  0  0
   -0.4660   -1.0549    0.0000 C   0  0  0  0  0  0  0  0  0  0  0  0
    0.9080   -0.4533    0.0000 C   0  0  0  0  0  0  0  0  0  0  0  0
    1.0741    1.0375    0.0000 C   0  0  0  0  0  0  0  0  0  0  0  0
    2.4481    1.6391    0.0000 C   0  0  0  0  0  0  0  0  0  0  0  0
    3.6562    0.7499    0.0000 C   0  0  0  0  0  0  0  0  0  0  0  0
    5.0303    1.3515    0.0000 Cl  0  0  0  0  0  0  0  0  0  0  0  0
    3.4901   -0.7409    0.0000 C   0  0  0  0  0  0  0  0  0  0  0  0
    2.1161   -1.3425    0.0000 C   0  0  0  0  0  0  0  0  0  0  0  0
    1.9500   -2.8333    0.0000 Cl  0  0  0  0  0  0  0  0  0  0  0  0
   -3.0482   -0.7673    0.0000 C   0  0  0  0  0  0  0  0  0  0  0  0
   -4.2562    0.1219    0.0000 C   0  0  0  0  0  0  0  0  0  0  0  0
   -4.0902    1.6127    0.0000 O   0  0  0  0  0  0  0  0  0  0  0  0
   -5.6303   -0.4797    0.0000 O   0  0  0  0  0  0  0  0  0  0  0  0
  2  1  1  1
  2  3  1  0
  3  4  1  0
  4  5  1  0
  5  6  2  0
  6  7  1  0
  7  8  1  0
  7  9  2  0
  9 10  1  0
 10 11  1  0
  2 12  1  0
 12 13  1  0
 13 14  2  0
 13 15  1  0
 10  4  2  0
M  END
>  <rName>  (1646) 
bAla_3SBn_24diCl

>  <PQ_SYMBOL>  (1646) 
bAla_3SBn_24diCl

>  <FULL_NAME>  (1646) 
(S)-3-amino-4-(2,4-dichlorophenyl)butanoic acid

>  <IUPAC_CONDENSED>  (1646) 
bAla(3S-Bn(2,4-diCl))

>  <IUPAC>  (1646) 
(3S)-3-amino-4-(2,4-dichlorophenyl)butanoic acid

>  <TYPE>  (1646) 
Backbone

>  <CLASS>  (1646) 
beta

>  <ANALOG>  (1646) 
Phe

>  <MOL_WT>  (1646) 
248.10899999999998

>  <LOGP>  (1646) 
2.3379000000000003

>  <TPSA>  (1646) 
63.32000000000001

>  <POPULARITY>  (1646) 
3.5

>  <PROTECTED>  (1646) 
TRUE

>  <SMILES>  (1646) 
N[C@@H](Cc1(ccc(Cl)cc1Cl))CC(=O)O

>  <INCHIKEY>  (1646) 
TYJLKWUTGBOOBY-QMMMGPOBSA-N

$$$$
bAla_3SBn_34diCl
     RDKit          2D

 15 15  0  0  0  0  0  0  0  0999 V2000
   -1.7108    1.2179    0.0000 N   0  0  0  0  0  0  0  0  0  0  0  0
   -1.8532   -0.2753    0.0000 C   0  0  0  0  0  0  0  0  0  0  0  0
   -0.6312   -1.1453    0.0000 C   0  0  0  0  0  0  0  0  0  0  0  0
    0.7332   -0.5220    0.0000 C   0  0  0  0  0  0  0  0  0  0  0  0
    0.8756    0.9713    0.0000 C   0  0  0  0  0  0  0  0  0  0  0  0
    2.2399    1.5946    0.0000 C   0  0  0  0  0  0  0  0  0  0  0  0
    3.4619    0.7247    0.0000 C   0  0  0  0  0  0  0  0  0  0  0  0
    4.8263    1.3480    0.0000 Cl  0  0  0  0  0  0  0  0  0  0  0  0
    3.3195   -0.7686    0.0000 C   0  0  0  0  0  0  0  0  0  0  0  0
    4.5415   -1.6385    0.0000 Cl  0  0  0  0  0  0  0  0  0  0  0  0
    1.9552   -1.3919    0.0000 C   0  0  0  0  0  0  0  0  0  0  0  0
   -3.2175   -0.8987    0.0000 C   0  0  0  0  0  0  0  0  0  0  0  0
   -4.4395   -0.0287    0.0000 C   0  0  0  0  0  0  0  0  0  0  0  0
   -4.2971    1.4645    0.0000 O   0  0  0  0  0  0  0  0  0  0  0  0
   -5.8039   -0.6520    0.0000 O   0  0  0  0  0  0  0  0  0  0  0  0
  2  1  1  1
  2  3  1  0
  3  4  1  0
  4  5  1  0
  5  6  2  0
  6  7  1  0
  7  8  1  0
  7  9  2  0
  9 10  1  0
  9 11  1  0
  2 12  1  0
 12 13  1  0
 13 14  2  0
 13 15  1  0
 11  4  2  0
M  END
>  <rName>  (1647) 
bAla_3SBn_34diCl

>  <PQ_SYMBOL>  (1647) 
bAla_3SBn_34diCl

>  <FULL_NAME>  (1647) 
(S)-3-amino-4-(3,4-dichlorophenyl)butanoic acid

>  <IUPAC_CONDENSED>  (1647) 
bAla(3S-Bn(3,4-diCl))

>  <IUPAC>  (1647) 
(3S)-3-amino-4-(3,4-dichlorophenyl)butanoic acid

>  <TYPE>  (1647) 
Backbone

>  <CLASS>  (1647) 
beta

>  <ANALOG>  (1647) 
Phe

>  <MOL_WT>  (1647) 
248.10899999999998

>  <LOGP>  (1647) 
2.3379000000000003

>  <TPSA>  (1647) 
63.32000000000001

>  <POPULARITY>  (1647) 
3.7

>  <PROTECTED>  (1647) 
TRUE

>  <SMILES>  (1647) 
N[C@@H](Cc1(ccc(Cl)c(Cl)c1))CC(=O)O

>  <INCHIKEY>  (1647) 
MVUQWYZNNRALPX-ZETCQYMHSA-N

$$$$
bAla_3SBn_34diF
     RDKit          2D

 15 15  0  0  0  0  0  0  0  0999 V2000
   -1.7108    1.2179    0.0000 N   0  0  0  0  0  0  0  0  0  0  0  0
   -1.8532   -0.2753    0.0000 C   0  0  0  0  0  0  0  0  0  0  0  0
   -0.6312   -1.1453    0.0000 C   0  0  0  0  0  0  0  0  0  0  0  0
    0.7332   -0.5220    0.0000 C   0  0  0  0  0  0  0  0  0  0  0  0
    0.8756    0.9713    0.0000 C   0  0  0  0  0  0  0  0  0  0  0  0
    2.2399    1.5946    0.0000 C   0  0  0  0  0  0  0  0  0  0  0  0
    3.4619    0.7247    0.0000 C   0  0  0  0  0  0  0  0  0  0  0  0
    4.8263    1.3480    0.0000 F   0  0  0  0  0  0  0  0  0  0  0  0
    3.3195   -0.7686    0.0000 C   0  0  0  0  0  0  0  0  0  0  0  0
    4.5415   -1.6385    0.0000 F   0  0  0  0  0  0  0  0  0  0  0  0
    1.9552   -1.3919    0.0000 C   0  0  0  0  0  0  0  0  0  0  0  0
   -3.2175   -0.8987    0.0000 C   0  0  0  0  0  0  0  0  0  0  0  0
   -4.4395   -0.0287    0.0000 C   0  0  0  0  0  0  0  0  0  0  0  0
   -4.2971    1.4645    0.0000 O   0  0  0  0  0  0  0  0  0  0  0  0
   -5.8039   -0.6520    0.0000 O   0  0  0  0  0  0  0  0  0  0  0  0
  2  1  1  1
  2  3  1  0
  3  4  1  0
  4  5  1  0
  5  6  2  0
  6  7  1  0
  7  8  1  0
  7  9  2  0
  9 10  1  0
  9 11  1  0
  2 12  1  0
 12 13  1  0
 13 14  2  0
 13 15  1  0
 11  4  2  0
M  END
>  <rName>  (1648) 
bAla_3SBn_34diF

>  <PQ_SYMBOL>  (1648) 
bAla_3SBn_34diF

>  <FULL_NAME>  (1648) 
(S)-3-amino-4-(3,4-difluorophenyl)butanoic acid

>  <IUPAC_CONDENSED>  (1648) 
bAla(3S-Bn(3,4-diF))

>  <IUPAC>  (1648) 
(3S)-3-amino-4-(3,4-difluorophenyl)butanoic acid

>  <TYPE>  (1648) 
Backbone

>  <CLASS>  (1648) 
beta

>  <ANALOG>  (1648) 
Phe

>  <MOL_WT>  (1648) 
215.19899999999996

>  <LOGP>  (1648) 
1.3093000000000001

>  <TPSA>  (1648) 
63.32000000000001

>  <POPULARITY>  (1648) 
5.8

>  <PROTECTED>  (1648) 
TRUE

>  <SMILES>  (1648) 
N[C@@H](Cc1(ccc(F)c(F)c1))CC(=O)O

>  <INCHIKEY>  (1648) 
LYHJWUKHUZUWDC-ZETCQYMHSA-N

$$$$
bAla_3SBn_4I
     RDKit          2D

 14 14  0  0  0  0  0  0  0  0999 V2000
   -1.3163    1.1838    0.0000 N   0  0  0  0  0  0  0  0  0  0  0  0
   -1.5499   -0.2979    0.0000 C   0  0  0  0  0  0  0  0  0  0  0  0
   -0.3836   -1.2411    0.0000 C   0  0  0  0  0  0  0  0  0  0  0  0
    1.0164   -0.7026    0.0000 C   0  0  0  0  0  0  0  0  0  0  0  0
    1.2501    0.7790    0.0000 C   0  0  0  0  0  0  0  0  0  0  0  0
    2.6501    1.3175    0.0000 C   0  0  0  0  0  0  0  0  0  0  0  0
    3.8164    0.3743    0.0000 C   0  0  0  0  0  0  0  0  0  0  0  0
    5.2165    0.9127    0.0000 I   0  0  0  0  0  0  0  0  0  0  0  0
    3.5828   -1.1074    0.0000 C   0  0  0  0  0  0  0  0  0  0  0  0
    2.1827   -1.6459    0.0000 C   0  0  0  0  0  0  0  0  0  0  0  0
   -2.9500   -0.8363    0.0000 C   0  0  0  0  0  0  0  0  0  0  0  0
   -4.1163    0.1069    0.0000 C   0  0  0  0  0  0  0  0  0  0  0  0
   -3.8826    1.5886    0.0000 O   0  0  0  0  0  0  0  0  0  0  0  0
   -5.5163   -0.4316    0.0000 O   0  0  0  0  0  0  0  0  0  0  0  0
  2  1  1  1
  2  3  1  0
  3  4  1  0
  4  5  1  0
  5  6  2  0
  6  7  1  0
  7  8  1  0
  7  9  2  0
  9 10  1  0
  2 11  1  0
 11 12  1  0
 12 13  2  0
 12 14  1  0
 10  4  2  0
M  END
>  <rName>  (1649) 
bAla_3SBn_4I

>  <PQ_SYMBOL>  (1649) 
bAla_3SBn_4I

>  <FULL_NAME>  (1649) 
(S)-3-amino-4-(4-iodophenyl)butanoic acid

>  <IUPAC_CONDENSED>  (1649) 
bAla(3S-Bn(4-I))

>  <IUPAC>  (1649) 
(3S)-3-amino-4-(4-iodophenyl)butanoic acid

>  <TYPE>  (1649) 
Backbone

>  <CLASS>  (1649) 
beta

>  <ANALOG>  (1649) 
Phe

>  <MOL_WT>  (1649) 
305.11500000000007

>  <LOGP>  (1649) 
1.6357000000000002

>  <TPSA>  (1649) 
63.32000000000001

>  <POPULARITY>  (1649) 
3

>  <PROTECTED>  (1649) 
TRUE

>  <SMILES>  (1649) 
N[C@@H](Cc1(ccc(I)cc1))CC(=O)O

>  <INCHIKEY>  (1649) 
JZJBJZHUZJDMMU-VIFPVBQESA-N

$$$$
bAla_3SBn_4CN
     RDKit          2D

 15 15  0  0  0  0  0  0  0  0999 V2000
   -1.6975    1.1783    0.0000 N   0  0  0  0  0  0  0  0  0  0  0  0
   -2.0091   -0.2890    0.0000 C   0  0  0  0  0  0  0  0  0  0  0  0
   -0.8942   -1.2925    0.0000 C   0  0  0  0  0  0  0  0  0  0  0  0
    0.5323   -0.8286    0.0000 C   0  0  0  0  0  0  0  0  0  0  0  0
    0.8439    0.6387    0.0000 C   0  0  0  0  0  0  0  0  0  0  0  0
    2.2704    1.1025    0.0000 C   0  0  0  0  0  0  0  0  0  0  0  0
    3.3853    0.0990    0.0000 C   0  0  0  0  0  0  0  0  0  0  0  0
    4.8118    0.5629    0.0000 C   0  0  0  0  0  0  0  0  0  0  0  0
    6.2383    1.0267    0.0000 N   0  0  0  0  0  0  0  0  0  0  0  0
    3.0737   -1.3683    0.0000 C   0  0  0  0  0  0  0  0  0  0  0  0
    1.6473   -1.8321    0.0000 C   0  0  0  0  0  0  0  0  0  0  0  0
   -3.4356   -0.7528    0.0000 C   0  0  0  0  0  0  0  0  0  0  0  0
   -4.5505    0.2506    0.0000 C   0  0  0  0  0  0  0  0  0  0  0  0
   -4.2390    1.7179    0.0000 O   0  0  0  0  0  0  0  0  0  0  0  0
   -5.9770   -0.2132    0.0000 O   0  0  0  0  0  0  0  0  0  0  0  0
  2  1  1  1
  2  3  1  0
  3  4  1  0
  4  5  1  0
  5  6  2  0
  6  7  1  0
  7  8  1  0
  8  9  3  0
  7 10  2  0
 10 11  1  0
  2 12  1  0
 12 13  1  0
 13 14  2  0
 13 15  1  0
 11  4  2  0
M  END
>  <rName>  (1650) 
bAla_3SBn_4CN

>  <PQ_SYMBOL>  (1650) 
bAla_3SBn_4CN

>  <FULL_NAME>  (1650) 
(S)-3-amino-4-(4-cyanophenyl)butanoic acid

>  <IUPAC_CONDENSED>  (1650) 
bAla(3S-Bn(4-CN))

>  <IUPAC>  (1650) 
(3S)-3-amino-4-(4-(nitrilomethyl)phenyl)butanoic acid

>  <TYPE>  (1650) 
Backbone

>  <CLASS>  (1650) 
beta

>  <ANALOG>  (1650) 
Phe

>  <MOL_WT>  (1650) 
204.22899999999998

>  <LOGP>  (1650) 
0.9027800000000001

>  <TPSA>  (1650) 
87.11

>  <POPULARITY>  (1650) 
3.5

>  <PROTECTED>  (1650) 
TRUE

>  <SMILES>  (1650) 
N[C@@H](Cc1(ccc(C#N)cc1))CC(=O)O

>  <INCHIKEY>  (1650) 
YXRYZOCXTPVLRS-JTQLQIEISA-N

$$$$
bAla_3Rthien2ylmethyl
     RDKit          2D

 12 12  0  0  0  0  0  0  0  0999 V2000
   -0.6782    1.2367    0.0000 N   0  0  0  0  0  0  0  0  0  0  0  0
   -0.8112   -0.2574    0.0000 C   0  0  0  0  0  0  0  0  0  0  0  0
    0.4162   -1.1196    0.0000 C   0  0  0  0  0  0  0  0  0  0  0  0
    1.7766   -0.4878    0.0000 C   0  0  0  0  0  0  0  0  0  0  0  0
    3.0874   -1.2170    0.0000 C   0  0  0  0  0  0  0  0  0  0  0  0
    4.1860   -0.1957    0.0000 C   0  0  0  0  0  0  0  0  0  0  0  0
    3.5542    1.1647    0.0000 C   0  0  0  0  0  0  0  0  0  0  0  0
    2.0651    0.9842    0.0000 S   0  0  0  0  0  0  0  0  0  0  0  0
   -2.1716   -0.8892    0.0000 C   0  0  0  0  0  0  0  0  0  0  0  0
   -3.3991   -0.0270    0.0000 C   0  0  0  0  0  0  0  0  0  0  0  0
   -3.2660    1.4671    0.0000 O   0  0  0  0  0  0  0  0  0  0  0  0
   -4.7595   -0.6589    0.0000 O   0  0  0  0  0  0  0  0  0  0  0  0
  2  1  1  6
  2  3  1  0
  3  4  1  0
  4  5  2  0
  5  6  1  0
  6  7  2  0
  7  8  1  0
  2  9  1  0
  9 10  1  0
 10 11  2  0
 10 12  1  0
  8  4  1  0
M  END
>  <rName>  (1651) 
bAla_3Rthien2ylmethyl

>  <PQ_SYMBOL>  (1651) 
bAla_3Rthien2ylmethyl

>  <FULL_NAME>  (1651) 
(S)-3-amino-4-(thiophen-2-yl)butanoic acid

>  <IUPAC_CONDENSED>  (1651) 
bAla(3R-thien-2-ylmethyl)

>  <IUPAC>  (1651) 
(3S)-3-amino-4-(thiophen-2-yl)butanoic acid

>  <TYPE>  (1651) 
Backbone

>  <CLASS>  (1651) 
beta

>  <ANALOG>  (1651) 
Phe

>  <MOL_WT>  (1651) 
185.24799999999996

>  <LOGP>  (1651) 
1.0926

>  <TPSA>  (1651) 
63.32000000000001

>  <POPULARITY>  (1651) 
6.6

>  <PROTECTED>  (1651) 
TRUE

>  <SMILES>  (1651) 
N[C@H](Cc1(cccs1))CC(=O)O

>  <INCHIKEY>  (1651) 
LRHQHHDPWZCVTR-ZCFIWIBFSA-N

$$$$
bAla_3Sthien3ylmethyl
     RDKit          2D

 12 12  0  0  0  0  0  0  0  0999 V2000
   -0.6782    1.2367    0.0000 N   0  0  0  0  0  0  0  0  0  0  0  0
   -0.8112   -0.2574    0.0000 C   0  0  0  0  0  0  0  0  0  0  0  0
    0.4162   -1.1196    0.0000 C   0  0  0  0  0  0  0  0  0  0  0  0
    1.7766   -0.4878    0.0000 C   0  0  0  0  0  0  0  0  0  0  0  0
    3.0874   -1.2170    0.0000 C   0  0  0  0  0  0  0  0  0  0  0  0
    4.1860   -0.1957    0.0000 C   0  0  0  0  0  0  0  0  0  0  0  0
    3.5542    1.1647    0.0000 S   0  0  0  0  0  0  0  0  0  0  0  0
    2.0651    0.9842    0.0000 C   0  0  0  0  0  0  0  0  0  0  0  0
   -2.1716   -0.8892    0.0000 C   0  0  0  0  0  0  0  0  0  0  0  0
   -3.3991   -0.0270    0.0000 C   0  0  0  0  0  0  0  0  0  0  0  0
   -3.2660    1.4671    0.0000 O   0  0  0  0  0  0  0  0  0  0  0  0
   -4.7595   -0.6589    0.0000 O   0  0  0  0  0  0  0  0  0  0  0  0
  2  1  1  1
  2  3  1  0
  3  4  1  0
  4  5  1  0
  5  6  2  0
  6  7  1  0
  7  8  1  0
  2  9  1  0
  9 10  1  0
 10 11  2  0
 10 12  1  0
  8  4  2  0
M  END
>  <rName>  (1652) 
bAla_3Sthien3ylmethyl

>  <PQ_SYMBOL>  (1652) 
bAla_3Sthien3ylmethyl

>  <FULL_NAME>  (1652) 
(S)-3-amino-4-(thiophen-3-yl)butanoic acid

>  <IUPAC_CONDENSED>  (1652) 
bAla(3S-thien-3-ylmethyl)

>  <IUPAC>  (1652) 
(3S)-3-amino-4-(thiophen-3-yl)butanoic acid

>  <TYPE>  (1652) 
Backbone

>  <CLASS>  (1652) 
beta

>  <ANALOG>  (1652) 
Phe

>  <MOL_WT>  (1652) 
185.24799999999996

>  <LOGP>  (1652) 
1.0926

>  <TPSA>  (1652) 
63.32000000000001

>  <POPULARITY>  (1652) 
3.8

>  <PROTECTED>  (1652) 
TRUE

>  <SMILES>  (1652) 
N[C@@H](Cc1(ccsc1))CC(=O)O

>  <INCHIKEY>  (1652) 
AZWUDBISUBOQFK-ZETCQYMHSA-N

$$$$
bAla_3Sallyl
     RDKit          2D

  9  8  0  0  0  0  0  0  0  0999 V2000
   -0.1633    1.5188    0.0000 N   0  0  0  0  0  0  0  0  0  0  0  0
   -0.2877    0.0239    0.0000 C   0  0  0  0  0  0  0  0  0  0  0  0
   -1.6444   -0.6157    0.0000 C   0  0  0  0  0  0  0  0  0  0  0  0
   -2.8768    0.2394    0.0000 C   0  0  0  0  0  0  0  0  0  0  0  0
   -4.2336   -0.4002    0.0000 C   0  0  0  0  0  0  0  0  0  0  0  0
    0.9447   -0.8312    0.0000 C   0  0  0  0  0  0  0  0  0  0  0  0
    2.3014   -0.1915    0.0000 C   0  0  0  0  0  0  0  0  0  0  0  0
    2.4259    1.3033    0.0000 O   0  0  0  0  0  0  0  0  0  0  0  0
    3.5338   -1.0467    0.0000 O   0  0  0  0  0  0  0  0  0  0  0  0
  2  1  1  6
  2  3  1  0
  3  4  1  0
  4  5  2  0
  2  6  1  0
  6  7  1  0
  7  8  2  0
  7  9  1  0
M  END
>  <rName>  (1653) 
bAla_3Sallyl

>  <PQ_SYMBOL>  (1653) 
bAla_3Sallyl

>  <FULL_NAME>  (1653) 
(S)-3-aminohex-5-enoic acid

>  <IUPAC_CONDENSED>  (1653) 
bAla(3S-allyl)

>  <IUPAC>  (1653) 
(3S)-3-aminohex-5-enoic acid

>  <TYPE>  (1653) 
Backbone

>  <CLASS>  (1653) 
beta

>  <ANALOG>  (1653) 
Val

>  <MOL_WT>  (1653) 
129.15900000000002

>  <LOGP>  (1653) 
0.3645

>  <TPSA>  (1653) 
63.32000000000001

>  <POPULARITY>  (1653) 
9.4

>  <PROTECTED>  (1653) 
TRUE

>  <SMILES>  (1653) 
N[C@@H](CC=C)CC(=O)O

>  <INCHIKEY>  (1653) 
UEMNCMYSSFWTCS-YFKPBYRVSA-N

$$$$
bAla_3SBn_2Cl
     RDKit          2D

 14 14  0  0  0  0  0  0  0  0999 V2000
   -1.2485    1.3349    0.0000 N   0  0  0  0  0  0  0  0  0  0  0  0
   -1.3063   -0.1640    0.0000 C   0  0  0  0  0  0  0  0  0  0  0  0
   -0.0372   -0.9636    0.0000 C   0  0  0  0  0  0  0  0  0  0  0  0
    1.2898   -0.2643    0.0000 C   0  0  0  0  0  0  0  0  0  0  0  0
    1.3477    1.2346    0.0000 C   0  0  0  0  0  0  0  0  0  0  0  0
    2.6747    1.9339    0.0000 C   0  0  0  0  0  0  0  0  0  0  0  0
    3.9438    1.1344    0.0000 C   0  0  0  0  0  0  0  0  0  0  0  0
    3.8859   -0.3645    0.0000 C   0  0  0  0  0  0  0  0  0  0  0  0
    2.5589   -1.0638    0.0000 C   0  0  0  0  0  0  0  0  0  0  0  0
    2.5010   -2.5627    0.0000 Cl  0  0  0  0  0  0  0  0  0  0  0  0
   -2.6334   -0.8633    0.0000 C   0  0  0  0  0  0  0  0  0  0  0  0
   -3.9025   -0.0637    0.0000 C   0  0  0  0  0  0  0  0  0  0  0  0
   -3.8446    1.4351    0.0000 O   0  0  0  0  0  0  0  0  0  0  0  0
   -5.2295   -0.7631    0.0000 O   0  0  0  0  0  0  0  0  0  0  0  0
  2  1  1  1
  2  3  1  0
  3  4  1  0
  4  5  2  0
  5  6  1  0
  6  7  2  0
  7  8  1  0
  8  9  2  0
  9 10  1  0
  2 11  1  0
 11 12  1  0
 12 13  2  0
 12 14  1  0
  9  4  1  0
M  END
>  <rName>  (1654) 
bAla_3SBn_2Cl

>  <PQ_SYMBOL>  (1654) 
bAla_3SBn_2Cl

>  <FULL_NAME>  (1654) 
(S)-3-amino-4-(2-chlorophenyl)butanoic acid

>  <IUPAC_CONDENSED>  (1654) 
bAla(3S-Bn(2-Cl))

>  <IUPAC>  (1654) 
(3S)-3-amino-4-(2-chlorophenyl)butanoic acid

>  <TYPE>  (1654) 
Backbone

>  <CLASS>  (1654) 
beta

>  <ANALOG>  (1654) 
Phe

>  <MOL_WT>  (1654) 
213.66399999999993

>  <LOGP>  (1654) 
1.6845

>  <TPSA>  (1654) 
63.32000000000001

>  <POPULARITY>  (1654) 
3.8

>  <PROTECTED>  (1654) 
TRUE

>  <SMILES>  (1654) 
N[C@@H](Cc1(ccccc1Cl))CC(=O)O

>  <INCHIKEY>  (1654) 
URIOIHMVAXZFMB-QMMMGPOBSA-N

$$$$
bAla_3SBn_4Cl
     RDKit          2D

 14 14  0  0  0  0  0  0  0  0999 V2000
   -1.3163    1.1838    0.0000 N   0  0  0  0  0  0  0  0  0  0  0  0
   -1.5499   -0.2979    0.0000 C   0  0  0  0  0  0  0  0  0  0  0  0
   -0.3836   -1.2411    0.0000 C   0  0  0  0  0  0  0  0  0  0  0  0
    1.0164   -0.7026    0.0000 C   0  0  0  0  0  0  0  0  0  0  0  0
    1.2501    0.7790    0.0000 C   0  0  0  0  0  0  0  0  0  0  0  0
    2.6501    1.3175    0.0000 C   0  0  0  0  0  0  0  0  0  0  0  0
    3.8164    0.3743    0.0000 C   0  0  0  0  0  0  0  0  0  0  0  0
    5.2165    0.9127    0.0000 Cl  0  0  0  0  0  0  0  0  0  0  0  0
    3.5828   -1.1074    0.0000 C   0  0  0  0  0  0  0  0  0  0  0  0
    2.1827   -1.6459    0.0000 C   0  0  0  0  0  0  0  0  0  0  0  0
   -2.9500   -0.8363    0.0000 C   0  0  0  0  0  0  0  0  0  0  0  0
   -4.1163    0.1069    0.0000 C   0  0  0  0  0  0  0  0  0  0  0  0
   -3.8826    1.5886    0.0000 O   0  0  0  0  0  0  0  0  0  0  0  0
   -5.5163   -0.4316    0.0000 O   0  0  0  0  0  0  0  0  0  0  0  0
  2  1  1  1
  2  3  1  0
  3  4  1  0
  4  5  1  0
  5  6  2  0
  6  7  1  0
  7  8  1  0
  7  9  2  0
  9 10  1  0
  2 11  1  0
 11 12  1  0
 12 13  2  0
 12 14  1  0
 10  4  2  0
M  END
>  <rName>  (1655) 
bAla_3SBn_4Cl

>  <PQ_SYMBOL>  (1655) 
bAla_3SBn_4Cl

>  <FULL_NAME>  (1655) 
(S)-3-amino-4-(4-chlorophenyl)butanoic acid

>  <IUPAC_CONDENSED>  (1655) 
bAla(3S-Bn(4-Cl))

>  <IUPAC>  (1655) 
(3S)-3-amino-4-(4-chlorophenyl)butanoic acid

>  <TYPE>  (1655) 
Backbone

>  <CLASS>  (1655) 
beta

>  <ANALOG>  (1655) 
Phe

>  <MOL_WT>  (1655) 
213.664

>  <LOGP>  (1655) 
1.6845

>  <TPSA>  (1655) 
63.32000000000001

>  <POPULARITY>  (1655) 
5.7

>  <PROTECTED>  (1655) 
TRUE

>  <SMILES>  (1655) 
N[C@@H](Cc1(ccc(Cl)cc1))CC(=O)O

>  <INCHIKEY>  (1655) 
LCYHDQUYYVDIPY-VIFPVBQESA-N

$$$$
bAla_3SBn_2F
     RDKit          2D

 14 14  0  0  0  0  0  0  0  0999 V2000
   -1.2485    1.3349    0.0000 N   0  0  0  0  0  0  0  0  0  0  0  0
   -1.3063   -0.1640    0.0000 C   0  0  0  0  0  0  0  0  0  0  0  0
   -0.0372   -0.9636    0.0000 C   0  0  0  0  0  0  0  0  0  0  0  0
    1.2898   -0.2643    0.0000 C   0  0  0  0  0  0  0  0  0  0  0  0
    1.3477    1.2346    0.0000 C   0  0  0  0  0  0  0  0  0  0  0  0
    2.6747    1.9339    0.0000 C   0  0  0  0  0  0  0  0  0  0  0  0
    3.9438    1.1344    0.0000 C   0  0  0  0  0  0  0  0  0  0  0  0
    3.8859   -0.3645    0.0000 C   0  0  0  0  0  0  0  0  0  0  0  0
    2.5589   -1.0638    0.0000 C   0  0  0  0  0  0  0  0  0  0  0  0
    2.5010   -2.5627    0.0000 F   0  0  0  0  0  0  0  0  0  0  0  0
   -2.6334   -0.8633    0.0000 C   0  0  0  0  0  0  0  0  0  0  0  0
   -3.9025   -0.0637    0.0000 C   0  0  0  0  0  0  0  0  0  0  0  0
   -3.8446    1.4351    0.0000 O   0  0  0  0  0  0  0  0  0  0  0  0
   -5.2295   -0.7631    0.0000 O   0  0  0  0  0  0  0  0  0  0  0  0
  2  1  1  1
  2  3  1  0
  3  4  1  0
  4  5  2  0
  5  6  1  0
  6  7  2  0
  7  8  1  0
  8  9  2  0
  9 10  1  0
  2 11  1  0
 11 12  1  0
 12 13  2  0
 12 14  1  0
  9  4  1  0
M  END
>  <rName>  (1656) 
bAla_3SBn_2F

>  <PQ_SYMBOL>  (1656) 
bAla_3SBn_2F

>  <FULL_NAME>  (1656) 
(S)-3-amino-4-(2-fluorophenyl)butanoic acid

>  <IUPAC_CONDENSED>  (1656) 
bAla(3S-Bn(2-F))

>  <IUPAC>  (1656) 
(3S)-3-amino-4-(2-fluorophenyl)butanoic acid

>  <TYPE>  (1656) 
Backbone

>  <CLASS>  (1656) 
beta

>  <ANALOG>  (1656) 
Phe

>  <MOL_WT>  (1656) 
197.20899999999995

>  <LOGP>  (1656) 
1.1702000000000001

>  <TPSA>  (1656) 
63.32000000000001

>  <POPULARITY>  (1656) 
4.4

>  <PROTECTED>  (1656) 
TRUE

>  <SMILES>  (1656) 
N[C@@H](Cc1(ccccc1F))CC(=O)O

>  <INCHIKEY>  (1656) 
CTZJKXPNBFSWAK-QMMMGPOBSA-N

$$$$
bAla_3SBn_3F
     RDKit          2D

 14 14  0  0  0  0  0  0  0  0999 V2000
   -1.4366    1.2366    0.0000 N   0  0  0  0  0  0  0  0  0  0  0  0
   -1.4962   -0.2622    0.0000 C   0  0  0  0  0  0  0  0  0  0  0  0
   -0.2280   -1.0632    0.0000 C   0  0  0  0  0  0  0  0  0  0  0  0
    1.0998   -0.3654    0.0000 C   0  0  0  0  0  0  0  0  0  0  0  0
    1.1594    1.1334    0.0000 C   0  0  0  0  0  0  0  0  0  0  0  0
    2.4872    1.8312    0.0000 C   0  0  0  0  0  0  0  0  0  0  0  0
    3.7554    1.0302    0.0000 C   0  0  0  0  0  0  0  0  0  0  0  0
    3.6958   -0.4686    0.0000 C   0  0  0  0  0  0  0  0  0  0  0  0
    4.9641   -1.2696    0.0000 F   0  0  0  0  0  0  0  0  0  0  0  0
    2.3680   -1.1664    0.0000 C   0  0  0  0  0  0  0  0  0  0  0  0
   -2.8240   -0.9600    0.0000 C   0  0  0  0  0  0  0  0  0  0  0  0
   -4.0922   -0.1590    0.0000 C   0  0  0  0  0  0  0  0  0  0  0  0
   -4.0327    1.3398    0.0000 O   0  0  0  0  0  0  0  0  0  0  0  0
   -5.4200   -0.8568    0.0000 O   0  0  0  0  0  0  0  0  0  0  0  0
  2  1  1  1
  2  3  1  0
  3  4  1  0
  4  5  2  0
  5  6  1  0
  6  7  2  0
  7  8  1  0
  8  9  1  0
  8 10  2  0
  2 11  1  0
 11 12  1  0
 12 13  2  0
 12 14  1  0
 10  4  1  0
M  END
>  <rName>  (1657) 
bAla_3SBn_3F

>  <PQ_SYMBOL>  (1657) 
bAla_3SBn_3F

>  <FULL_NAME>  (1657) 
(S)-3-amino-4-(3-fluorophenyl)butanoic acid

>  <IUPAC_CONDENSED>  (1657) 
bAla(3S-Bn(3-F))

>  <IUPAC>  (1657) 
(3S)-3-amino-4-(3-fluorophenyl)butanoic acid

>  <TYPE>  (1657) 
Backbone

>  <CLASS>  (1657) 
beta

>  <ANALOG>  (1657) 
Phe

>  <MOL_WT>  (1657) 
197.20899999999997

>  <LOGP>  (1657) 
1.1702000000000001

>  <TPSA>  (1657) 
63.32000000000001

>  <POPULARITY>  (1657) 
4.6

>  <PROTECTED>  (1657) 
TRUE

>  <SMILES>  (1657) 
N[C@@H](Cc1(cccc(F)c1))CC(=O)O

>  <INCHIKEY>  (1657) 
UVEHSQZQGJXLEV-VIFPVBQESA-N

$$$$
bAla_3Ph_3OMe
     RDKit          2D

 14 14  0  0  0  0  0  0  0  0999 V2000
   -1.2988   -1.8090    0.0000 N   0  0  0  0  0  0  0  0  0  0  0  0
   -1.1504   -0.3163    0.0000 C   0  0  0  0  0  0  0  0  0  0  0  0
    0.2165    0.3015    0.0000 C   0  0  0  0  0  0  0  0  0  0  0  0
    0.3649    1.7941    0.0000 C   0  0  0  0  0  0  0  0  0  0  0  0
    1.7317    2.4119    0.0000 C   0  0  0  0  0  0  0  0  0  0  0  0
    2.9502    1.5371    0.0000 C   0  0  0  0  0  0  0  0  0  0  0  0
    2.8018    0.0445    0.0000 C   0  0  0  0  0  0  0  0  0  0  0  0
    4.0203   -0.8304    0.0000 O   0  0  0  0  0  0  0  0  0  0  0  0
    3.8719   -2.3230    0.0000 C   0  0  0  0  0  0  0  0  0  0  0  0
    1.4349   -0.5733    0.0000 C   0  0  0  0  0  0  0  0  0  0  0  0
   -2.3689    0.5585    0.0000 C   0  0  0  0  0  0  0  0  0  0  0  0
   -3.7357   -0.0593    0.0000 C   0  0  0  0  0  0  0  0  0  0  0  0
   -3.8841   -1.5519    0.0000 O   0  0  0  0  0  0  0  0  0  0  0  0
   -4.9542    0.8155    0.0000 O   0  0  0  0  0  0  0  0  0  0  0  0
  1  2  1  0
  2  3  1  0
  3  4  2  0
  4  5  1  0
  5  6  2  0
  6  7  1  0
  7  8  1  0
  8  9  1  0
  7 10  2  0
  2 11  1  0
 11 12  1  0
 12 13  2  0
 12 14  1  0
 10  3  1  0
M  END
>  <rName>  (1658) 
bAla_3Ph_3OMe

>  <PQ_SYMBOL>  (1658) 
bAla_3Ph_3OMe

>  <FULL_NAME>  (1658) 
3-amino-3-(3-methoxyphenyl)propanoic acid

>  <IUPAC_CONDENSED>  (1658) 
bAla(3-Ph(3-OMe))

>  <IUPAC>  (1658) 
3-amino-3-(3-methoxyphenyl)propanoic acid

>  <TYPE>  (1658) 
Backbone

>  <CLASS>  (1658) 
beta

>  <ANALOG>  (1658) 
X

>  <MOL_WT>  (1658) 
195.21799999999996

>  <LOGP>  (1658) 
1.1697

>  <TPSA>  (1658) 
72.55

>  <POPULARITY>  (1658) 
11.6

>  <PROTECTED>  (1658) 
TRUE

>  <SMILES>  (1658) 
NC(c1(cccc(OC)c1))CC(=O)O

>  <INCHIKEY>  (1658) 
FGMPGCPZEOXEES-UHFFFAOYSA-N

$$$$
aMeNle_but3enyl
     RDKit          2D

 14 13  0  0  0  0  0  0  0  0999 V2000
   -2.2743    1.8192    0.0000 N   0  0  0  0  0  0  0  0  0  0  0  0
   -3.0695    0.5473    0.0000 C   0  0  0  0  0  0  0  0  0  0  0  0
   -4.3414    1.3425    0.0000 C   0  0  0  0  0  0  0  0  0  0  0  0
   -1.7977   -0.2479    0.0000 C   0  0  0  0  0  0  0  0  0  0  0  0
   -0.4731    0.4560    0.0000 C   0  0  0  0  0  0  0  0  0  0  0  0
    0.7988   -0.3392    0.0000 C   0  0  0  0  0  0  0  0  0  0  0  0
    2.1234    0.3646    0.0000 C   0  0  0  0  0  0  0  0  0  0  0  0
    3.3953   -0.4306    0.0000 C   0  0  0  0  0  0  0  0  0  0  0  0
    4.7199    0.2733    0.0000 C   0  0  0  0  0  0  0  0  0  0  0  0
    5.9917   -0.5219    0.0000 C   0  0  0  0  0  0  0  0  0  0  0  0
    7.3163    0.1820    0.0000 C   0  0  0  0  0  0  0  0  0  0  0  0
   -3.8647   -0.7245    0.0000 C   0  0  0  0  0  0  0  0  0  0  0  0
   -5.3638   -0.6718    0.0000 O   0  0  0  0  0  0  0  0  0  0  0  0
   -3.1609   -2.0491    0.0000 O   0  0  0  0  0  0  0  0  0  0  0  0
  1  2  1  0
  2  3  1  6
  2  4  1  0
  4  5  1  0
  5  6  1  0
  6  7  1  0
  7  8  1  0
  8  9  1  0
  9 10  1  0
 10 11  2  0
  2 12  1  0
 12 13  2  0
 12 14  1  0
M  END
>  <rName>  (1659) 
aMeNle_but3enyl

>  <PQ_SYMBOL>  (1659) 
aMeNle_but3enyl

>  <FULL_NAME>  (1659) 
(S)-2-amino-2-methyldec-9-enoic acid

>  <IUPAC_CONDENSED>  (1659) 
aMeNle(but-3-enyl)

>  <IUPAC>  (1659) 
(2S)-2-amino-2-methyldec-9-enoic acid

>  <TYPE>  (1659) 
Backbone

>  <CLASS>  (1659) 
alpha

>  <ANALOG>  (1659) 
X

>  <MOL_WT>  (1659) 
199.294

>  <LOGP>  (1659) 
2.315

>  <TPSA>  (1659) 
63.32000000000001

>  <POPULARITY>  (1659) 
8.5

>  <PROTECTED>  (1659) 
TRUE

>  <SMILES>  (1659) 
N[C@@](C)(CCCCCCC=C)C(=O)O

>  <INCHIKEY>  (1659) 
JWZFECWHKQLRGK-NSHDSACASA-N

$$$$
D-aMeGly_allyl
     RDKit          2D

  9  8  0  0  0  0  0  0  0  0999 V2000
    0.4883    1.7705    0.0000 N   0  0  0  0  0  0  0  0  0  0  0  0
   -0.4082    0.5679    0.0000 C   0  0  0  0  0  0  0  0  0  0  0  0
   -1.6108    1.4643    0.0000 C   0  0  0  0  0  0  0  0  0  0  0  0
    0.7944   -0.3286    0.0000 C   0  0  0  0  0  0  0  0  0  0  0  0
    2.1721    0.2647    0.0000 C   0  0  0  0  0  0  0  0  0  0  0  0
    3.3748   -0.6318    0.0000 C   0  0  0  0  0  0  0  0  0  0  0  0
   -1.3047   -0.6348    0.0000 C   0  0  0  0  0  0  0  0  0  0  0  0
   -2.7944   -0.4597    0.0000 O   0  0  0  0  0  0  0  0  0  0  0  0
   -0.7114   -2.0125    0.0000 O   0  0  0  0  0  0  0  0  0  0  0  0
  1  2  1  0
  2  3  1  1
  2  4  1  0
  4  5  1  0
  5  6  2  0
  2  7  1  0
  7  8  2  0
  7  9  1  0
M  END
>  <rName>  (1660) 
D-aMeGly_allyl

>  <PQ_SYMBOL>  (1660) 
D-aMeGly_allyl

>  <FULL_NAME>  (1660) 
(R)-2-amino-2-methylpent-4-enoic acid

>  <IUPAC_CONDENSED>  (1660) 
D-aMeGly(allyl)

>  <IUPAC>  (1660) 
(2R)-2-amino-2-methylpent-4-enoic acid

>  <TYPE>  (1660) 
Backbone

>  <CLASS>  (1660) 
alpha

>  <ANALOG>  (1660) 
Leu

>  <MOL_WT>  (1660) 
129.159

>  <LOGP>  (1660) 
0.3645

>  <TPSA>  (1660) 
63.32000000000001

>  <POPULARITY>  (1660) 
13.9

>  <PROTECTED>  (1660) 
TRUE

>  <SMILES>  (1660) 
N[C@](C)(CC=C)C(=O)O

>  <INCHIKEY>  (1660) 
QMBTZYHBJFPEJB-ZCFIWIBFSA-N

$$$$
D-aMeNva_vinyl
     RDKit          2D

 11 10  0  0  0  0  0  0  0  0999 V2000
   -0.6186    1.8190    0.0000 N   0  0  0  0  0  0  0  0  0  0  0  0
   -1.4256    0.5545    0.0000 C   0  0  0  0  0  0  0  0  0  0  0  0
   -2.6900    1.3614    0.0000 C   0  0  0  0  0  0  0  0  0  0  0  0
   -0.1611   -0.2524    0.0000 C   0  0  0  0  0  0  0  0  0  0  0  0
    1.1700    0.4391    0.0000 C   0  0  0  0  0  0  0  0  0  0  0  0
    2.4344   -0.3678    0.0000 C   0  0  0  0  0  0  0  0  0  0  0  0
    3.7655    0.3238    0.0000 C   0  0  0  0  0  0  0  0  0  0  0  0
    5.0299   -0.4832    0.0000 C   0  0  0  0  0  0  0  0  0  0  0  0
   -2.2325   -0.7100    0.0000 C   0  0  0  0  0  0  0  0  0  0  0  0
   -3.7310   -0.6433    0.0000 O   0  0  0  0  0  0  0  0  0  0  0  0
   -1.5409   -2.0410    0.0000 O   0  0  0  0  0  0  0  0  0  0  0  0
  1  2  1  0
  2  3  1  1
  2  4  1  0
  4  5  1  0
  5  6  1  0
  6  7  1  0
  7  8  2  0
  2  9  1  0
  9 10  2  0
  9 11  1  0
M  END
>  <rName>  (1661) 
D-aMeNva_vinyl

>  <PQ_SYMBOL>  (1661) 
D-aMeNva_vinyl

>  <FULL_NAME>  (1661) 
(R)-2-amino-2-methylhept-6-enoic acid

>  <IUPAC_CONDENSED>  (1661) 
D-aMeNva(vinyl)

>  <IUPAC>  (1661) 
(2R)-2-amino-2-methylhept-6-enoic acid

>  <TYPE>  (1661) 
Backbone

>  <CLASS>  (1661) 
alpha

>  <ANALOG>  (1661) 
Leu

>  <MOL_WT>  (1661) 
157.213

>  <LOGP>  (1661) 
1.1446999999999998

>  <TPSA>  (1661) 
63.32000000000001

>  <POPULARITY>  (1661) 
7.7

>  <PROTECTED>  (1661) 
TRUE

>  <SMILES>  (1661) 
N[C@](C)(CCCC=C)C(=O)O

>  <INCHIKEY>  (1661) 
AERCCJGORROTKW-MRVPVSSYSA-N

$$$$
D-aMeNle_vinyl
     RDKit          2D

 12 11  0  0  0  0  0  0  0  0999 V2000
   -1.1275    1.8149    0.0000 N   0  0  0  0  0  0  0  0  0  0  0  0
   -1.9492    0.5601    0.0000 C   0  0  0  0  0  0  0  0  0  0  0  0
   -3.2041    1.3818    0.0000 C   0  0  0  0  0  0  0  0  0  0  0  0
   -0.6943   -0.2617    0.0000 C   0  0  0  0  0  0  0  0  0  0  0  0
    0.6448    0.4142    0.0000 C   0  0  0  0  0  0  0  0  0  0  0  0
    1.8997   -0.4075    0.0000 C   0  0  0  0  0  0  0  0  0  0  0  0
    3.2388    0.2684    0.0000 C   0  0  0  0  0  0  0  0  0  0  0  0
    4.4937   -0.5533    0.0000 C   0  0  0  0  0  0  0  0  0  0  0  0
    5.8327    0.1226    0.0000 C   0  0  0  0  0  0  0  0  0  0  0  0
   -2.7709   -0.6948    0.0000 C   0  0  0  0  0  0  0  0  0  0  0  0
   -4.2686   -0.6106    0.0000 O   0  0  0  0  0  0  0  0  0  0  0  0
   -2.0950   -2.0339    0.0000 O   0  0  0  0  0  0  0  0  0  0  0  0
  1  2  1  0
  2  3  1  1
  2  4  1  0
  4  5  1  0
  5  6  1  0
  6  7  1  0
  7  8  1  0
  8  9  2  0
  2 10  1  0
 10 11  2  0
 10 12  1  0
M  END
>  <rName>  (1662) 
D-aMeNle_vinyl

>  <PQ_SYMBOL>  (1662) 
D-aMeNle_vinyl

>  <FULL_NAME>  (1662) 
(R)-2-amino-2-methyloct-7-enoic acid

>  <IUPAC_CONDENSED>  (1662) 
D-aMeNle(vinyl)

>  <IUPAC>  (1662) 
(2R)-2-amino-2-methyloct-7-enoic acid

>  <TYPE>  (1662) 
Backbone

>  <CLASS>  (1662) 
alpha

>  <ANALOG>  (1662) 
X

>  <MOL_WT>  (1662) 
171.24

>  <LOGP>  (1662) 
1.5348

>  <TPSA>  (1662) 
63.32000000000001

>  <POPULARITY>  (1662) 
7.1

>  <PROTECTED>  (1662) 
TRUE

>  <SMILES>  (1662) 
N[C@](C)(CCCCC=C)C(=O)O

>  <INCHIKEY>  (1662) 
LZZHLUIHALMSMF-SECBINFHSA-N

$$$$
bAla_3RBn_3Cl
     RDKit          2D

 14 14  0  0  0  0  0  0  0  0999 V2000
   -1.4366    1.2366    0.0000 N   0  0  0  0  0  0  0  0  0  0  0  0
   -1.4962   -0.2622    0.0000 C   0  0  0  0  0  0  0  0  0  0  0  0
   -0.2280   -1.0632    0.0000 C   0  0  0  0  0  0  0  0  0  0  0  0
    1.0998   -0.3654    0.0000 C   0  0  0  0  0  0  0  0  0  0  0  0
    1.1594    1.1334    0.0000 C   0  0  0  0  0  0  0  0  0  0  0  0
    2.4872    1.8312    0.0000 C   0  0  0  0  0  0  0  0  0  0  0  0
    3.7554    1.0302    0.0000 C   0  0  0  0  0  0  0  0  0  0  0  0
    3.6958   -0.4686    0.0000 C   0  0  0  0  0  0  0  0  0  0  0  0
    4.9641   -1.2696    0.0000 Cl  0  0  0  0  0  0  0  0  0  0  0  0
    2.3680   -1.1664    0.0000 C   0  0  0  0  0  0  0  0  0  0  0  0
   -2.8240   -0.9600    0.0000 C   0  0  0  0  0  0  0  0  0  0  0  0
   -4.0922   -0.1590    0.0000 C   0  0  0  0  0  0  0  0  0  0  0  0
   -4.0327    1.3398    0.0000 O   0  0  0  0  0  0  0  0  0  0  0  0
   -5.4200   -0.8568    0.0000 O   0  0  0  0  0  0  0  0  0  0  0  0
  2  1  1  6
  2  3  1  0
  3  4  1  0
  4  5  2  0
  5  6  1  0
  6  7  2  0
  7  8  1  0
  8  9  1  0
  8 10  2  0
  2 11  1  0
 11 12  1  0
 12 13  2  0
 12 14  1  0
 10  4  1  0
M  END
>  <rName>  (1663) 
bAla_3RBn_3Cl

>  <PQ_SYMBOL>  (1663) 
bAla_3RBn_3Cl

>  <FULL_NAME>  (1663) 
(R)-3-amino-4-(3-chlorophenyl)butanoic acid

>  <IUPAC_CONDENSED>  (1663) 
bAla(3R-Bn(3-Cl))

>  <IUPAC>  (1663) 
(3R)-3-amino-4-(3-chlorophenyl)butanoic acid

>  <TYPE>  (1663) 
Backbone

>  <CLASS>  (1663) 
beta

>  <ANALOG>  (1663) 
Phe

>  <MOL_WT>  (1663) 
213.66399999999996

>  <LOGP>  (1663) 
1.6845

>  <TPSA>  (1663) 
63.32000000000001

>  <POPULARITY>  (1663) 
5.5

>  <PROTECTED>  (1663) 
TRUE

>  <SMILES>  (1663) 
N[C@H](Cc1(cccc(Cl)c1))CC(=O)O

>  <INCHIKEY>  (1663) 
IWIJTZNQNXPKGN-SECBINFHSA-N

$$$$
bAla_3RBn_2F
     RDKit          2D

 14 14  0  0  0  0  0  0  0  0999 V2000
   -1.2485    1.3349    0.0000 N   0  0  0  0  0  0  0  0  0  0  0  0
   -1.3063   -0.1640    0.0000 C   0  0  0  0  0  0  0  0  0  0  0  0
   -0.0372   -0.9636    0.0000 C   0  0  0  0  0  0  0  0  0  0  0  0
    1.2898   -0.2643    0.0000 C   0  0  0  0  0  0  0  0  0  0  0  0
    1.3477    1.2346    0.0000 C   0  0  0  0  0  0  0  0  0  0  0  0
    2.6747    1.9339    0.0000 C   0  0  0  0  0  0  0  0  0  0  0  0
    3.9438    1.1344    0.0000 C   0  0  0  0  0  0  0  0  0  0  0  0
    3.8859   -0.3645    0.0000 C   0  0  0  0  0  0  0  0  0  0  0  0
    2.5589   -1.0638    0.0000 C   0  0  0  0  0  0  0  0  0  0  0  0
    2.5010   -2.5627    0.0000 F   0  0  0  0  0  0  0  0  0  0  0  0
   -2.6334   -0.8633    0.0000 C   0  0  0  0  0  0  0  0  0  0  0  0
   -3.9025   -0.0637    0.0000 C   0  0  0  0  0  0  0  0  0  0  0  0
   -3.8446    1.4351    0.0000 O   0  0  0  0  0  0  0  0  0  0  0  0
   -5.2295   -0.7631    0.0000 O   0  0  0  0  0  0  0  0  0  0  0  0
  2  1  1  6
  2  3  1  0
  3  4  1  0
  4  5  2  0
  5  6  1  0
  6  7  2  0
  7  8  1  0
  8  9  2  0
  9 10  1  0
  2 11  1  0
 11 12  1  0
 12 13  2  0
 12 14  1  0
  9  4  1  0
M  END
>  <rName>  (1664) 
bAla_3RBn_2F

>  <PQ_SYMBOL>  (1664) 
bAla_3RBn_2F

>  <FULL_NAME>  (1664) 
(R)-3-amino-4-(2-fluorophenyl)butanoic acid

>  <IUPAC_CONDENSED>  (1664) 
bAla(3R-Bn(2-F))

>  <IUPAC>  (1664) 
(3R)-3-amino-4-(2-fluorophenyl)butanoic acid

>  <TYPE>  (1664) 
Backbone

>  <CLASS>  (1664) 
beta

>  <ANALOG>  (1664) 
Phe

>  <MOL_WT>  (1664) 
197.20899999999995

>  <LOGP>  (1664) 
1.1702000000000001

>  <TPSA>  (1664) 
63.32000000000001

>  <POPULARITY>  (1664) 
11.3

>  <PROTECTED>  (1664) 
TRUE

>  <SMILES>  (1664) 
N[C@H](Cc1(ccccc1F))CC(=O)O

>  <INCHIKEY>  (1664) 
CTZJKXPNBFSWAK-MRVPVSSYSA-N

$$$$
bAla_3RBn_3F
     RDKit          2D

 14 14  0  0  0  0  0  0  0  0999 V2000
   -1.4366    1.2366    0.0000 N   0  0  0  0  0  0  0  0  0  0  0  0
   -1.4962   -0.2622    0.0000 C   0  0  0  0  0  0  0  0  0  0  0  0
   -0.2280   -1.0632    0.0000 C   0  0  0  0  0  0  0  0  0  0  0  0
    1.0998   -0.3654    0.0000 C   0  0  0  0  0  0  0  0  0  0  0  0
    1.1594    1.1334    0.0000 C   0  0  0  0  0  0  0  0  0  0  0  0
    2.4872    1.8312    0.0000 C   0  0  0  0  0  0  0  0  0  0  0  0
    3.7554    1.0302    0.0000 C   0  0  0  0  0  0  0  0  0  0  0  0
    3.6958   -0.4686    0.0000 C   0  0  0  0  0  0  0  0  0  0  0  0
    4.9641   -1.2696    0.0000 F   0  0  0  0  0  0  0  0  0  0  0  0
    2.3680   -1.1664    0.0000 C   0  0  0  0  0  0  0  0  0  0  0  0
   -2.8240   -0.9600    0.0000 C   0  0  0  0  0  0  0  0  0  0  0  0
   -4.0922   -0.1590    0.0000 C   0  0  0  0  0  0  0  0  0  0  0  0
   -4.0327    1.3398    0.0000 O   0  0  0  0  0  0  0  0  0  0  0  0
   -5.4200   -0.8568    0.0000 O   0  0  0  0  0  0  0  0  0  0  0  0
  2  1  1  6
  2  3  1  0
  3  4  1  0
  4  5  2  0
  5  6  1  0
  6  7  2  0
  7  8  1  0
  8  9  1  0
  8 10  2  0
  2 11  1  0
 11 12  1  0
 12 13  2  0
 12 14  1  0
 10  4  1  0
M  END
>  <rName>  (1665) 
bAla_3RBn_3F

>  <PQ_SYMBOL>  (1665) 
bAla_3RBn_3F

>  <FULL_NAME>  (1665) 
(R)-3-amino-4-(3-fluorophenyl)butanoic acid

>  <IUPAC_CONDENSED>  (1665) 
bAla(3R-Bn(3-F))

>  <IUPAC>  (1665) 
(3R)-3-amino-4-(3-fluorophenyl)butanoic acid

>  <TYPE>  (1665) 
Backbone

>  <CLASS>  (1665) 
beta

>  <ANALOG>  (1665) 
Phe

>  <MOL_WT>  (1665) 
197.20899999999997

>  <LOGP>  (1665) 
1.1702000000000001

>  <TPSA>  (1665) 
63.32000000000001

>  <POPULARITY>  (1665) 
10

>  <PROTECTED>  (1665) 
TRUE

>  <SMILES>  (1665) 
N[C@H](Cc1(cccc(F)c1))CC(=O)O

>  <INCHIKEY>  (1665) 
UVEHSQZQGJXLEV-SECBINFHSA-N

$$$$
bAla_3RBn_4F
     RDKit          2D

 14 14  0  0  0  0  0  0  0  0999 V2000
   -1.3163    1.1838    0.0000 N   0  0  0  0  0  0  0  0  0  0  0  0
   -1.5499   -0.2979    0.0000 C   0  0  0  0  0  0  0  0  0  0  0  0
   -0.3836   -1.2411    0.0000 C   0  0  0  0  0  0  0  0  0  0  0  0
    1.0164   -0.7026    0.0000 C   0  0  0  0  0  0  0  0  0  0  0  0
    1.2501    0.7790    0.0000 C   0  0  0  0  0  0  0  0  0  0  0  0
    2.6501    1.3175    0.0000 C   0  0  0  0  0  0  0  0  0  0  0  0
    3.8164    0.3743    0.0000 C   0  0  0  0  0  0  0  0  0  0  0  0
    5.2165    0.9127    0.0000 F   0  0  0  0  0  0  0  0  0  0  0  0
    3.5828   -1.1074    0.0000 C   0  0  0  0  0  0  0  0  0  0  0  0
    2.1827   -1.6459    0.0000 C   0  0  0  0  0  0  0  0  0  0  0  0
   -2.9500   -0.8363    0.0000 C   0  0  0  0  0  0  0  0  0  0  0  0
   -4.1163    0.1069    0.0000 C   0  0  0  0  0  0  0  0  0  0  0  0
   -3.8826    1.5886    0.0000 O   0  0  0  0  0  0  0  0  0  0  0  0
   -5.5163   -0.4316    0.0000 O   0  0  0  0  0  0  0  0  0  0  0  0
  2  1  1  6
  2  3  1  0
  3  4  1  0
  4  5  1  0
  5  6  2  0
  6  7  1  0
  7  8  1  0
  7  9  2  0
  9 10  1  0
  2 11  1  0
 11 12  1  0
 12 13  2  0
 12 14  1  0
 10  4  2  0
M  END
>  <rName>  (1666) 
bAla_3RBn_4F

>  <PQ_SYMBOL>  (1666) 
bAla_3RBn_4F

>  <FULL_NAME>  (1666) 
(R)-3-amino-4-(4-fluorophenyl)butanoic acid

>  <IUPAC_CONDENSED>  (1666) 
bAla(3R-Bn(4-F))

>  <IUPAC>  (1666) 
(3R)-3-amino-4-(4-fluorophenyl)butanoic acid

>  <TYPE>  (1666) 
Backbone

>  <CLASS>  (1666) 
beta

>  <ANALOG>  (1666) 
Phe

>  <MOL_WT>  (1666) 
197.20899999999997

>  <LOGP>  (1666) 
1.1702000000000001

>  <TPSA>  (1666) 
63.32000000000001

>  <POPULARITY>  (1666) 
12.2

>  <PROTECTED>  (1666) 
TRUE

>  <SMILES>  (1666) 
N[C@H](Cc1(ccc(F)cc1))CC(=O)O

>  <INCHIKEY>  (1666) 
MWAZHPYPJNEKID-SECBINFHSA-N

$$$$
bAla_3Rbenzhydryl
     RDKit          2D

 19 20  0  0  0  0  0  0  0  0999 V2000
   -0.5750   -2.6112    0.0000 N   0  0  0  0  0  0  0  0  0  0  0  0
   -0.9213   -1.1517    0.0000 C   0  0  0  0  0  0  0  0  0  0  0  0
    0.1695   -0.1221    0.0000 C   0  0  0  0  0  0  0  0  0  0  0  0
    1.6066   -0.5519    0.0000 C   0  0  0  0  0  0  0  0  0  0  0  0
    1.9529   -2.0114    0.0000 C   0  0  0  0  0  0  0  0  0  0  0  0
    3.3900   -2.4412    0.0000 C   0  0  0  0  0  0  0  0  0  0  0  0
    4.4808   -1.4116    0.0000 C   0  0  0  0  0  0  0  0  0  0  0  0
    4.1345    0.0479    0.0000 C   0  0  0  0  0  0  0  0  0  0  0  0
    2.6974    0.4777    0.0000 C   0  0  0  0  0  0  0  0  0  0  0  0
   -0.1768    1.3374    0.0000 C   0  0  0  0  0  0  0  0  0  0  0  0
    0.9140    2.3671    0.0000 C   0  0  0  0  0  0  0  0  0  0  0  0
    0.5677    3.8265    0.0000 C   0  0  0  0  0  0  0  0  0  0  0  0
   -0.8694    4.2564    0.0000 C   0  0  0  0  0  0  0  0  0  0  0  0
   -1.9602    3.2267    0.0000 C   0  0  0  0  0  0  0  0  0  0  0  0
   -1.6139    1.7673    0.0000 C   0  0  0  0  0  0  0  0  0  0  0  0
   -2.3584   -0.7219    0.0000 C   0  0  0  0  0  0  0  0  0  0  0  0
   -3.4492   -1.7515    0.0000 C   0  0  0  0  0  0  0  0  0  0  0  0
   -3.1029   -3.2110    0.0000 O   0  0  0  0  0  0  0  0  0  0  0  0
   -4.8863   -1.3217    0.0000 O   0  0  0  0  0  0  0  0  0  0  0  0
  2  1  1  1
  2  3  1  0
  3  4  1  0
  4  5  2  0
  5  6  1  0
  6  7  2  0
  7  8  1  0
  8  9  2  0
  3 10  1  0
 10 11  2  0
 11 12  1  0
 12 13  2  0
 13 14  1  0
 14 15  2  0
  2 16  1  0
 16 17  1  0
 17 18  2  0
 17 19  1  0
  9  4  1  0
 15 10  1  0
M  END
>  <rName>  (1667) 
bAla_3Rbenzhydryl

>  <PQ_SYMBOL>  (1667) 
bAla_3Rbenzhydryl

>  <FULL_NAME>  (1667) 
(S)-3-amino-4,4-diphenylbutanoic acid

>  <IUPAC_CONDENSED>  (1667) 
bAla(3R-benzhydryl)

>  <IUPAC>  (1667) 
(3S)-3-amino-4,4-diphenylbutanoic acid

>  <TYPE>  (1667) 
Backbone

>  <CLASS>  (1667) 
beta

>  <ANALOG>  (1667) 
Phe

>  <MOL_WT>  (1667) 
255.31699999999998

>  <LOGP>  (1667) 
2.6205000000000007

>  <TPSA>  (1667) 
63.32000000000001

>  <POPULARITY>  (1667) 
3.6

>  <PROTECTED>  (1667) 
TRUE

>  <SMILES>  (1667) 
N[C@H](C(c1(ccccc1))c2(ccccc2))CC(=O)O

>  <INCHIKEY>  (1667) 
BMWWMUHNEWGJJH-AWEZNQCLSA-N

$$$$
THIQ3R-bAla
     RDKit          2D

 14 15  0  0  0  0  0  0  0  0999 V2000
   -0.9977    1.0836    0.0000 N   0  0  0  0  0  0  0  0  0  0  0  0
   -1.1667   -0.4068    0.0000 C   0  0  0  0  0  0  0  0  0  0  0  0
    0.0395   -1.2984    0.0000 C   0  0  0  0  0  0  0  0  0  0  0  0
    1.4148   -0.6996    0.0000 C   0  0  0  0  0  0  0  0  0  0  0  0
    2.6210   -1.5912    0.0000 C   0  0  0  0  0  0  0  0  0  0  0  0
    3.9963   -0.9924    0.0000 C   0  0  0  0  0  0  0  0  0  0  0  0
    4.1654    0.4980    0.0000 C   0  0  0  0  0  0  0  0  0  0  0  0
    2.9591    1.3897    0.0000 C   0  0  0  0  0  0  0  0  0  0  0  0
    1.5838    0.7908    0.0000 C   0  0  0  0  0  0  0  0  0  0  0  0
    0.3776    1.6825    0.0000 C   0  0  0  0  0  0  0  0  0  0  0  0
   -2.5420   -1.0056    0.0000 C   0  0  0  0  0  0  0  0  0  0  0  0
   -3.7483   -0.1140    0.0000 C   0  0  0  0  0  0  0  0  0  0  0  0
   -3.5792    1.3764    0.0000 O   0  0  0  0  0  0  0  0  0  0  0  0
   -5.1235   -0.7129    0.0000 O   0  0  0  0  0  0  0  0  0  0  0  0
  1  2  1  0
  2  3  1  0
  3  4  1  0
  4  5  2  0
  5  6  1  0
  6  7  2  0
  7  8  1  0
  8  9  2  0
  9 10  1  0
  2 11  1  6
 11 12  1  0
 12 13  2  0
 12 14  1  0
  9  4  1  0
 10  1  1  0
M  END
>  <rName>  (1668) 
THIQ3R-bAla

>  <PQ_SYMBOL>  (1668) 
THIQ3R-bAla

>  <FULL_NAME>  (1668) 
2-[(3R)-1,2,3,4-tetrahydroisoquinolin-3-yl]acetic acid

>  <IUPAC_CONDENSED>  (1668) 
THIQ(3R)-bAla

>  <IUPAC>  (1668) 
2-((4R)-3-azabicyclo[4.4.0]deca-1(10),6,8-trien-4-yl)acetic acid

>  <TYPE>  (1668) 
Backbone

>  <CLASS>  (1668) 
beta

>  <ANALOG>  (1668) 
Pro

>  <MOL_WT>  (1668) 
191.22999999999993

>  <LOGP>  (1668) 
1.1756

>  <TPSA>  (1668) 
49.33

>  <POPULARITY>  (1668) 
7.8

>  <PROTECTED>  (1668) 
TRUE

>  <SMILES>  (1668) 
N2[C@H](Cc1(ccccc1C2))CC(=O)O

>  <INCHIKEY>  (1668) 
QYYIBCOJRFOBDJ-SNVBAGLBSA-N

$$$$
D-Asp-OMe
     RDKit          2D

 10  9  0  0  0  0  0  0  0  0999 V2000
    0.1391    1.7243    0.0000 N   0  0  0  0  0  0  0  0  0  0  0  0
   -0.0935    0.2424    0.0000 C   0  0  0  0  0  0  0  0  0  0  0  0
   -1.4930   -0.2972    0.0000 C   0  0  0  0  0  0  0  0  0  0  0  0
   -1.7256   -1.7790    0.0000 O   0  0  0  0  0  0  0  0  0  0  0  0
   -2.6601    0.6451    0.0000 O   0  0  0  0  0  0  0  0  0  0  0  0
   -4.0597    0.1056    0.0000 C   0  0  0  0  0  0  0  0  0  0  0  0
    1.0736   -0.6999    0.0000 C   0  0  0  0  0  0  0  0  0  0  0  0
    2.4732   -0.1603    0.0000 C   0  0  0  0  0  0  0  0  0  0  0  0
    2.7057    1.3216    0.0000 O   0  0  0  0  0  0  0  0  0  0  0  0
    3.6403   -1.1026    0.0000 O   0  0  0  0  0  0  0  0  0  0  0  0
  2  1  1  6
  2  3  1  0
  3  4  2  0
  3  5  1  0
  5  6  1  0
  2  7  1  0
  7  8  1  0
  8  9  2  0
  8 10  1  0
M  END
>  <rName>  (1669) 
D-Asp-OMe

>  <PQ_SYMBOL>  (1669) 
D-Asp-OMe

>  <FULL_NAME>  (1669) 
(R)-3-amino-4-methoxy-4-oxobutanoic acid

>  <IUPAC_CONDENSED>  (1669) 
D-Asp-OMe

>  <IUPAC>  (1669) 
(3R)-3-amino-3-(methoxycarbonyl)propanoic acid

>  <TYPE>  (1669) 
Backbone

>  <CLASS>  (1669) 
beta

>  <ANALOG>  (1669) 
X

>  <MOL_WT>  (1669) 
147.13

>  <LOGP>  (1669) 
-1.0385999999999997

>  <TPSA>  (1669) 
89.62000000000002

>  <POPULARITY>  (1669) 
7.8

>  <PROTECTED>  (1669) 
TRUE

>  <SMILES>  (1669) 
N[C@@H](C(=O)OC)CC(=O)O

>  <INCHIKEY>  (1669) 
SWWBMHIMADRNIK-GSVOUGTGSA-N

$$$$
bAla_3RPh_3NO2
     RDKit          2D

 15 15  0  0  0  0  0  0  0  0999 V2000
   -1.6415   -1.8098    0.0000 N   0  0  0  0  0  0  0  0  0  0  0  0
   -1.5067   -0.3159    0.0000 C   0  0  0  0  0  0  0  0  0  0  0  0
   -0.1455    0.3144    0.0000 C   0  0  0  0  0  0  0  0  0  0  0  0
   -0.0107    1.8083    0.0000 C   0  0  0  0  0  0  0  0  0  0  0  0
    1.3505    2.4385    0.0000 C   0  0  0  0  0  0  0  0  0  0  0  0
    2.5768    1.5748    0.0000 C   0  0  0  0  0  0  0  0  0  0  0  0
    2.4420    0.0808    0.0000 C   0  0  0  0  0  0  0  0  0  0  0  0
    1.0808   -0.5494    0.0000 C   0  0  0  0  0  0  0  0  0  0  0  0
    3.6684   -0.7829    0.0000 N   0  0  0  0  0  0  0  0  0  0  0  0
    5.0296   -0.1527    0.0000 O   0  0  0  0  0  0  0  0  0  0  0  0
    3.5336   -2.2768    0.0000 O   0  0  0  0  0  0  0  0  0  0  0  0
   -2.7331    0.5479    0.0000 C   0  0  0  0  0  0  0  0  0  0  0  0
   -4.0943   -0.0824    0.0000 C   0  0  0  0  0  0  0  0  0  0  0  0
   -4.2291   -1.5763    0.0000 O   0  0  0  0  0  0  0  0  0  0  0  0
   -5.3207    0.7814    0.0000 O   0  0  0  0  0  0  0  0  0  0  0  0
  2  1  1  1
  2  3  1  0
  3  4  1  0
  4  5  2  0
  5  6  1  0
  6  7  2  0
  7  8  1  0
  7  9  1  0
  9 10  2  0
  9 11  1  0
  2 12  1  0
 12 13  1  0
 13 14  2  0
 13 15  1  0
  8  3  2  0
M  CHG  2   9   1  11  -1
M  END
>  <rName>  (1670) 
bAla_3RPh_3NO2

>  <PQ_SYMBOL>  (1670) 
bAla_3RPh_3NO2

>  <FULL_NAME>  (1670) 
(S)-3-amino-3-(3-nitrophenyl)propanoic acid

>  <IUPAC_CONDENSED>  (1670) 
bAla(3R-Ph(3-NO2))

>  <IUPAC>  (1670) 
(3S)-3-amino-3-(3-nitrophenyl)propanoic acid

>  <TYPE>  (1670) 
Backbone

>  <CLASS>  (1670) 
beta

>  <ANALOG>  (1670) 
Lys

>  <MOL_WT>  (1670) 
210.18899999999996

>  <LOGP>  (1670) 
1.0693000000000001

>  <TPSA>  (1670) 
106.46

>  <POPULARITY>  (1670) 
8.3

>  <PROTECTED>  (1670) 
TRUE

>  <SMILES>  (1670) 
N[C@H](c1(cccc(c1)[N+](=O)[O-]))CC(=O)O

>  <INCHIKEY>  (1670) 
SJBFILRQMRECCK-QMMMGPOBSA-N

$$$$
bAla_3SPh_3NO2
     RDKit          2D

 15 15  0  0  0  0  0  0  0  0999 V2000
   -1.6415   -1.8098    0.0000 N   0  0  0  0  0  0  0  0  0  0  0  0
   -1.5067   -0.3159    0.0000 C   0  0  0  0  0  0  0  0  0  0  0  0
   -0.1455    0.3144    0.0000 C   0  0  0  0  0  0  0  0  0  0  0  0
   -0.0107    1.8083    0.0000 C   0  0  0  0  0  0  0  0  0  0  0  0
    1.3505    2.4385    0.0000 C   0  0  0  0  0  0  0  0  0  0  0  0
    2.5768    1.5748    0.0000 C   0  0  0  0  0  0  0  0  0  0  0  0
    2.4420    0.0808    0.0000 C   0  0  0  0  0  0  0  0  0  0  0  0
    1.0808   -0.5494    0.0000 C   0  0  0  0  0  0  0  0  0  0  0  0
    3.6684   -0.7829    0.0000 N   0  0  0  0  0  0  0  0  0  0  0  0
    5.0296   -0.1527    0.0000 O   0  0  0  0  0  0  0  0  0  0  0  0
    3.5336   -2.2768    0.0000 O   0  0  0  0  0  0  0  0  0  0  0  0
   -2.7331    0.5479    0.0000 C   0  0  0  0  0  0  0  0  0  0  0  0
   -4.0943   -0.0824    0.0000 C   0  0  0  0  0  0  0  0  0  0  0  0
   -4.2291   -1.5763    0.0000 O   0  0  0  0  0  0  0  0  0  0  0  0
   -5.3207    0.7814    0.0000 O   0  0  0  0  0  0  0  0  0  0  0  0
  2  1  1  6
  2  3  1  0
  3  4  1  0
  4  5  2  0
  5  6  1  0
  6  7  2  0
  7  8  1  0
  7  9  1  0
  9 10  2  0
  9 11  1  0
  2 12  1  0
 12 13  1  0
 13 14  2  0
 13 15  1  0
  8  3  2  0
M  CHG  2   9   1  11  -1
M  END
>  <rName>  (1671) 
bAla_3SPh_3NO2

>  <PQ_SYMBOL>  (1671) 
bAla_3SPh_3NO2

>  <FULL_NAME>  (1671) 
(R)-3-amino-3-(3-nitrophenyl)propanoic acid

>  <IUPAC_CONDENSED>  (1671) 
bAla(3S-Ph(3-NO2))

>  <IUPAC>  (1671) 
(3R)-3-amino-3-(3-nitrophenyl)propanoic acid

>  <TYPE>  (1671) 
Backbone

>  <CLASS>  (1671) 
beta

>  <ANALOG>  (1671) 
Lys

>  <MOL_WT>  (1671) 
210.18899999999996

>  <LOGP>  (1671) 
1.0693000000000001

>  <TPSA>  (1671) 
106.46

>  <POPULARITY>  (1671) 
7

>  <PROTECTED>  (1671) 
TRUE

>  <SMILES>  (1671) 
N[C@@H](c1(cccc(c1)[N+](=O)[O-]))CC(=O)O

>  <INCHIKEY>  (1671) 
SJBFILRQMRECCK-MRVPVSSYSA-N

$$$$
Lys_Mca
     RDKit          2D

 26 27  0  0  0  0  0  0  0  0999 V2000
    7.9231   -3.6340    0.0000 C   0  0  0  0  0  0  0  0  0  0  0  0
    7.8344   -2.1366    0.0000 O   0  0  0  0  0  0  0  0  0  0  0  0
    6.4932   -1.4647    0.0000 C   0  0  0  0  0  0  0  0  0  0  0  0
    5.2408   -2.2902    0.0000 C   0  0  0  0  0  0  0  0  0  0  0  0
    3.8997   -1.6184    0.0000 C   0  0  0  0  0  0  0  0  0  0  0  0
    3.8110   -0.1210    0.0000 C   0  0  0  0  0  0  0  0  0  0  0  0
    2.4699    0.5509    0.0000 C   0  0  0  0  0  0  0  0  0  0  0  0
    1.2175   -0.2746    0.0000 C   0  0  0  0  0  0  0  0  0  0  0  0
   -0.1236    0.3972    0.0000 C   0  0  0  0  0  0  0  0  0  0  0  0
   -0.2123    1.8946    0.0000 O   0  0  0  0  0  0  0  0  0  0  0  0
   -1.3760   -0.4283    0.0000 N   0  0  0  0  0  0  0  0  0  0  0  0
   -2.7172    0.2436    0.0000 C   0  0  0  0  0  0  0  0  0  0  0  0
   -3.9696   -0.5819    0.0000 C   0  0  0  0  0  0  0  0  0  0  0  0
   -5.3107    0.0899    0.0000 C   0  0  0  0  0  0  0  0  0  0  0  0
   -6.5631   -0.7356    0.0000 C   0  0  0  0  0  0  0  0  0  0  0  0
   -7.9042   -0.0637    0.0000 C   0  0  0  0  0  0  0  0  0  0  0  0
   -7.9929    1.4337    0.0000 N   0  0  0  0  0  0  0  0  0  0  0  0
   -9.1566   -0.8892    0.0000 C   0  0  0  0  0  0  0  0  0  0  0  0
   -9.0679   -2.3866    0.0000 O   0  0  0  0  0  0  0  0  0  0  0  0
  -10.4978   -0.2174    0.0000 O   0  0  0  0  0  0  0  0  0  0  0  0
    2.3812    2.0482    0.0000 C   0  0  0  0  0  0  0  0  0  0  0  0
    3.6336    2.8738    0.0000 C   0  0  0  0  0  0  0  0  0  0  0  0
    3.5449    4.3711    0.0000 O   0  0  0  0  0  0  0  0  0  0  0  0
    4.9747    2.2019    0.0000 O   0  0  0  0  0  0  0  0  0  0  0  0
    5.0634    0.7045    0.0000 C   0  0  0  0  0  0  0  0  0  0  0  0
    6.4045    0.0327    0.0000 C   0  0  0  0  0  0  0  0  0  0  0  0
  1  2  1  0
  2  3  1  0
  3  4  1  0
  4  5  2  0
  5  6  1  0
  6  7  1  0
  7  8  1  0
  8  9  1  0
  9 10  2  0
  9 11  1  0
 11 12  1  0
 12 13  1  0
 13 14  1  0
 14 15  1  0
 15 16  1  0
 16 17  1  1
 16 18  1  0
 18 19  2  0
 18 20  1  0
  7 21  2  0
 21 22  1  0
 22 23  2  0
 22 24  1  0
 24 25  1  0
 25 26  1  0
 26  3  2  0
 25  6  2  0
M  END
>  <rName>  (1672) 
Lys_Mca

>  <PQ_SYMBOL>  (1672) 
Lys_Mca

>  <FULL_NAME>  (1672) 
N6-(2-(7-methoxy-2-oxo-2H-chromen-4-yl)acetyl)-L-lysine

>  <IUPAC_CONDENSED>  (1672) 
Lys(Mca)

>  <IUPAC>  (1672) 
(2S)-2-amino-6-((9-methoxy-3-oxo-2-oxabicyclo[4.4.0]deca-1(10),4,6,8-tetraen-5-yl)methylcarbonylamino)hexanoic acid

>  <TYPE>  (1672) 
Backbone

>  <CLASS>  (1672) 
alpha

>  <ANALOG>  (1672) 
Lys

>  <MOL_WT>  (1672) 
362.38200000000006

>  <LOGP>  (1672) 
1.0425000000000004

>  <TPSA>  (1672) 
131.86

>  <POPULARITY>  (1672) 
4

>  <PROTECTED>  (1672) 
TRUE

>  <SMILES>  (1672) 
COc1ccc2c(CC(=O)NCCCC[C@H](N)C(=O)O)cc(=O)oc2c1

>  <INCHIKEY>  (1672) 
QRFZXDIMTUJAAN-AWEZNQCLSA-N

$$$$
bAla_3RBn_4tBu
     RDKit          2D

 17 17  0  0  0  0  0  0  0  0999 V2000
   -2.2447    1.1497    0.0000 N   0  0  0  0  0  0  0  0  0  0  0  0
   -2.5808   -0.3121    0.0000 C   0  0  0  0  0  0  0  0  0  0  0  0
   -1.4828   -1.3341    0.0000 C   0  0  0  0  0  0  0  0  0  0  0  0
   -0.0487   -0.8942    0.0000 C   0  0  0  0  0  0  0  0  0  0  0  0
    0.2873    0.5677    0.0000 C   0  0  0  0  0  0  0  0  0  0  0  0
    1.7213    1.0076    0.0000 C   0  0  0  0  0  0  0  0  0  0  0  0
    2.8194   -0.0143    0.0000 C   0  0  0  0  0  0  0  0  0  0  0  0
    2.4833   -1.4762    0.0000 C   0  0  0  0  0  0  0  0  0  0  0  0
    1.0493   -1.9161    0.0000 C   0  0  0  0  0  0  0  0  0  0  0  0
    4.2534    0.4256    0.0000 C   0  0  0  0  0  0  0  0  0  0  0  0
    4.6933   -1.0084    0.0000 C   0  0  0  0  0  0  0  0  0  0  0  0
    3.8135    1.8597    0.0000 C   0  0  0  0  0  0  0  0  0  0  0  0
    5.6874    0.8655    0.0000 C   0  0  0  0  0  0  0  0  0  0  0  0
   -4.0148   -0.7521    0.0000 C   0  0  0  0  0  0  0  0  0  0  0  0
   -5.1128    0.2699    0.0000 C   0  0  0  0  0  0  0  0  0  0  0  0
   -4.7768    1.7318    0.0000 O   0  0  0  0  0  0  0  0  0  0  0  0
   -6.5468   -0.1701    0.0000 O   0  0  0  0  0  0  0  0  0  0  0  0
  2  1  1  6
  2  3  1  0
  3  4  1  0
  4  5  1  0
  5  6  2  0
  6  7  1  0
  7  8  2  0
  8  9  1  0
  7 10  1  0
 10 11  1  0
 10 12  1  0
 10 13  1  0
  2 14  1  0
 14 15  1  0
 15 16  2  0
 15 17  1  0
  9  4  2  0
M  END
>  <rName>  (1673) 
bAla_3RBn_4tBu

>  <PQ_SYMBOL>  (1673) 
bAla_3RBn_4tBu

>  <FULL_NAME>  (1673) 
(R)-3-amino-4-(4-(tert-butyl)phenyl)butanoic acid

>  <IUPAC_CONDENSED>  (1673) 
bAla(3R-Bn(4-tBu))

>  <IUPAC>  (1673) 
(3R)-3-amino-4-(4-(tert-butyl)phenyl)butanoic acid

>  <TYPE>  (1673) 
Backbone

>  <CLASS>  (1673) 
beta

>  <ANALOG>  (1673) 
Phe

>  <MOL_WT>  (1673) 
235.32699999999994

>  <LOGP>  (1673) 
2.3286000000000002

>  <TPSA>  (1673) 
63.32000000000001

>  <POPULARITY>  (1673) 
3.4

>  <PROTECTED>  (1673) 
TRUE

>  <SMILES>  (1673) 
N[C@H](Cc1(ccc(cc1)C(C)(C)C))CC(=O)O

>  <INCHIKEY>  (1673) 
KDMFJTJDCJZSGE-GFCCVEGCSA-N

$$$$
D-Ala_cBu
     RDKit          2D

 10 10  0  0  0  0  0  0  0  0999 V2000
   -0.6366    1.7081    0.0000 N   0  0  0  0  0  0  0  0  0  0  0  0
   -0.9860    0.2494    0.0000 C   0  0  0  0  0  0  0  0  0  0  0  0
    0.1026   -0.7826    0.0000 C   0  0  0  0  0  0  0  0  0  0  0  0
    1.5406   -0.3558    0.0000 C   0  0  0  0  0  0  0  0  0  0  0  0
    2.2557    0.9628    0.0000 C   0  0  0  0  0  0  0  0  0  0  0  0
    3.5743    0.2478    0.0000 C   0  0  0  0  0  0  0  0  0  0  0  0
    2.8592   -1.0708    0.0000 C   0  0  0  0  0  0  0  0  0  0  0  0
   -2.4240   -0.1774    0.0000 C   0  0  0  0  0  0  0  0  0  0  0  0
   -2.7734   -1.6361    0.0000 O   0  0  0  0  0  0  0  0  0  0  0  0
   -3.5126    0.8546    0.0000 O   0  0  0  0  0  0  0  0  0  0  0  0
  2  1  1  6
  2  3  1  0
  3  4  1  0
  4  5  1  0
  5  6  1  0
  6  7  1  0
  2  8  1  0
  8  9  2  0
  8 10  1  0
  7  4  1  0
M  END
>  <rName>  (1674) 
D-Ala_cBu

>  <PQ_SYMBOL>  (1674) 
D-Ala_cBu

>  <FULL_NAME>  (1674) 
(R)-2-amino-3-cyclobutylpropanoic acid

>  <IUPAC_CONDENSED>  (1674) 
D-Ala(cBu)

>  <IUPAC>  (1674) 
(2R)-2-amino-3-cyclobutylpropanoic acid

>  <TYPE>  (1674) 
Backbone

>  <CLASS>  (1674) 
alpha

>  <ANALOG>  (1674) 
Ala

>  <MOL_WT>  (1674) 
143.186

>  <LOGP>  (1674) 
0.5884999999999998

>  <TPSA>  (1674) 
63.32000000000001

>  <POPULARITY>  (1674) 
7.5

>  <PROTECTED>  (1674) 
TRUE

>  <SMILES>  (1674) 
N[C@H](CC1(CCC1))C(=O)O

>  <INCHIKEY>  (1674) 
SRGOJUDAJKUDAZ-ZCFIWIBFSA-N

$$$$
bAla_3RPh_4F
     RDKit          2D

 13 13  0  0  0  0  0  0  0  0999 V2000
   -1.5598   -1.8792    0.0000 N   0  0  0  0  0  0  0  0  0  0  0  0
   -1.0324   -0.4750    0.0000 C   0  0  0  0  0  0  0  0  0  0  0  0
    0.4474   -0.2297    0.0000 C   0  0  0  0  0  0  0  0  0  0  0  0
    0.9749    1.1745    0.0000 C   0  0  0  0  0  0  0  0  0  0  0  0
    2.4547    1.4199    0.0000 C   0  0  0  0  0  0  0  0  0  0  0  0
    3.4070    0.2610    0.0000 C   0  0  0  0  0  0  0  0  0  0  0  0
    4.8868    0.5063    0.0000 F   0  0  0  0  0  0  0  0  0  0  0  0
    2.8796   -1.1432    0.0000 C   0  0  0  0  0  0  0  0  0  0  0  0
    1.3998   -1.3886    0.0000 C   0  0  0  0  0  0  0  0  0  0  0  0
   -1.9847    0.6838    0.0000 C   0  0  0  0  0  0  0  0  0  0  0  0
   -3.4645    0.4385    0.0000 C   0  0  0  0  0  0  0  0  0  0  0  0
   -3.9920   -0.9657    0.0000 O   0  0  0  0  0  0  0  0  0  0  0  0
   -4.4169    1.5974    0.0000 O   0  0  0  0  0  0  0  0  0  0  0  0
  2  1  1  1
  2  3  1  0
  3  4  1  0
  4  5  2  0
  5  6  1  0
  6  7  1  0
  6  8  2  0
  8  9  1  0
  2 10  1  0
 10 11  1  0
 11 12  2  0
 11 13  1  0
  9  3  2  0
M  END
>  <rName>  (1675) 
bAla_3RPh_4F

>  <PQ_SYMBOL>  (1675) 
bAla_3RPh_4F

>  <FULL_NAME>  (1675) 
(S)-3-amino-3-(4-fluorophenyl)propanoic acid

>  <IUPAC_CONDENSED>  (1675) 
bAla(3R-Ph(4-F))

>  <IUPAC>  (1675) 
(3S)-3-amino-3-(4-fluorophenyl)propanoic acid

>  <TYPE>  (1675) 
Backbone

>  <CLASS>  (1675) 
beta

>  <ANALOG>  (1675) 
X

>  <MOL_WT>  (1675) 
183.18199999999996

>  <LOGP>  (1675) 
1.3002000000000002

>  <TPSA>  (1675) 
63.32000000000001

>  <POPULARITY>  (1675) 
9.1

>  <PROTECTED>  (1675) 
TRUE

>  <SMILES>  (1675) 
N[C@H](c1(ccc(F)cc1))CC(=O)O

>  <INCHIKEY>  (1675) 
CPGFMWPQXUXQRX-QMMMGPOBSA-N

$$$$
bAla_3RPh_4Cl
     RDKit          2D

 13 13  0  0  0  0  0  0  0  0999 V2000
   -1.5598   -1.8792    0.0000 N   0  0  0  0  0  0  0  0  0  0  0  0
   -1.0324   -0.4750    0.0000 C   0  0  0  0  0  0  0  0  0  0  0  0
    0.4474   -0.2297    0.0000 C   0  0  0  0  0  0  0  0  0  0  0  0
    0.9749    1.1745    0.0000 C   0  0  0  0  0  0  0  0  0  0  0  0
    2.4547    1.4199    0.0000 C   0  0  0  0  0  0  0  0  0  0  0  0
    3.4070    0.2610    0.0000 C   0  0  0  0  0  0  0  0  0  0  0  0
    4.8868    0.5063    0.0000 Cl  0  0  0  0  0  0  0  0  0  0  0  0
    2.8796   -1.1432    0.0000 C   0  0  0  0  0  0  0  0  0  0  0  0
    1.3998   -1.3886    0.0000 C   0  0  0  0  0  0  0  0  0  0  0  0
   -1.9847    0.6838    0.0000 C   0  0  0  0  0  0  0  0  0  0  0  0
   -3.4645    0.4385    0.0000 C   0  0  0  0  0  0  0  0  0  0  0  0
   -3.9920   -0.9657    0.0000 O   0  0  0  0  0  0  0  0  0  0  0  0
   -4.4169    1.5974    0.0000 O   0  0  0  0  0  0  0  0  0  0  0  0
  2  1  1  1
  2  3  1  0
  3  4  1  0
  4  5  2  0
  5  6  1  0
  6  7  1  0
  6  8  2  0
  8  9  1  0
  2 10  1  0
 10 11  1  0
 11 12  2  0
 11 13  1  0
  9  3  2  0
M  END
>  <rName>  (1676) 
bAla_3RPh_4Cl

>  <PQ_SYMBOL>  (1676) 
bAla_3RPh_4Cl

>  <FULL_NAME>  (1676) 
(S)-3-amino-3-(4-chlorophenyl)propanoic acid

>  <IUPAC_CONDENSED>  (1676) 
bAla(3R-Ph(4-Cl))

>  <IUPAC>  (1676) 
(3S)-3-amino-3-(4-chlorophenyl)propanoic acid

>  <TYPE>  (1676) 
Backbone

>  <CLASS>  (1676) 
beta

>  <ANALOG>  (1676) 
X

>  <MOL_WT>  (1676) 
199.63699999999997

>  <LOGP>  (1676) 
1.8145000000000002

>  <TPSA>  (1676) 
63.32000000000001

>  <POPULARITY>  (1676) 
9.4

>  <PROTECTED>  (1676) 
TRUE

>  <SMILES>  (1676) 
N[C@H](c1(ccc(Cl)cc1))CC(=O)O

>  <INCHIKEY>  (1676) 
BXGDBHAMTMMNTO-QMMMGPOBSA-N

$$$$
bAla_3SPh_4Cl
     RDKit          2D

 13 13  0  0  0  0  0  0  0  0999 V2000
   -1.5598   -1.8792    0.0000 N   0  0  0  0  0  0  0  0  0  0  0  0
   -1.0324   -0.4750    0.0000 C   0  0  0  0  0  0  0  0  0  0  0  0
    0.4474   -0.2297    0.0000 C   0  0  0  0  0  0  0  0  0  0  0  0
    0.9749    1.1745    0.0000 C   0  0  0  0  0  0  0  0  0  0  0  0
    2.4547    1.4199    0.0000 C   0  0  0  0  0  0  0  0  0  0  0  0
    3.4070    0.2610    0.0000 C   0  0  0  0  0  0  0  0  0  0  0  0
    4.8868    0.5063    0.0000 Cl  0  0  0  0  0  0  0  0  0  0  0  0
    2.8796   -1.1432    0.0000 C   0  0  0  0  0  0  0  0  0  0  0  0
    1.3998   -1.3886    0.0000 C   0  0  0  0  0  0  0  0  0  0  0  0
   -1.9847    0.6838    0.0000 C   0  0  0  0  0  0  0  0  0  0  0  0
   -3.4645    0.4385    0.0000 C   0  0  0  0  0  0  0  0  0  0  0  0
   -3.9920   -0.9657    0.0000 O   0  0  0  0  0  0  0  0  0  0  0  0
   -4.4169    1.5974    0.0000 O   0  0  0  0  0  0  0  0  0  0  0  0
  2  1  1  6
  2  3  1  0
  3  4  1  0
  4  5  2  0
  5  6  1  0
  6  7  1  0
  6  8  2  0
  8  9  1  0
  2 10  1  0
 10 11  1  0
 11 12  2  0
 11 13  1  0
  9  3  2  0
M  END
>  <rName>  (1677) 
bAla_3SPh_4Cl

>  <PQ_SYMBOL>  (1677) 
bAla_3SPh_4Cl

>  <FULL_NAME>  (1677) 
(R)-3-amino-3-(4-chlorophenyl)propanoic acid

>  <IUPAC_CONDENSED>  (1677) 
bAla(3S-Ph(4-Cl))

>  <IUPAC>  (1677) 
(3R)-3-amino-3-(4-chlorophenyl)propanoic acid

>  <TYPE>  (1677) 
Backbone

>  <CLASS>  (1677) 
beta

>  <ANALOG>  (1677) 
X

>  <MOL_WT>  (1677) 
199.63699999999997

>  <LOGP>  (1677) 
1.8145000000000002

>  <TPSA>  (1677) 
63.32000000000001

>  <POPULARITY>  (1677) 
10.2

>  <PROTECTED>  (1677) 
TRUE

>  <SMILES>  (1677) 
N[C@@H](c1(ccc(Cl)cc1))CC(=O)O

>  <INCHIKEY>  (1677) 
BXGDBHAMTMMNTO-MRVPVSSYSA-N

$$$$
bAla_3SPh_4F
     RDKit          2D

 13 13  0  0  0  0  0  0  0  0999 V2000
   -1.5598   -1.8792    0.0000 N   0  0  0  0  0  0  0  0  0  0  0  0
   -1.0324   -0.4750    0.0000 C   0  0  0  0  0  0  0  0  0  0  0  0
    0.4474   -0.2297    0.0000 C   0  0  0  0  0  0  0  0  0  0  0  0
    0.9749    1.1745    0.0000 C   0  0  0  0  0  0  0  0  0  0  0  0
    2.4547    1.4199    0.0000 C   0  0  0  0  0  0  0  0  0  0  0  0
    3.4070    0.2610    0.0000 C   0  0  0  0  0  0  0  0  0  0  0  0
    4.8868    0.5063    0.0000 F   0  0  0  0  0  0  0  0  0  0  0  0
    2.8796   -1.1432    0.0000 C   0  0  0  0  0  0  0  0  0  0  0  0
    1.3998   -1.3886    0.0000 C   0  0  0  0  0  0  0  0  0  0  0  0
   -1.9847    0.6838    0.0000 C   0  0  0  0  0  0  0  0  0  0  0  0
   -3.4645    0.4385    0.0000 C   0  0  0  0  0  0  0  0  0  0  0  0
   -3.9920   -0.9657    0.0000 O   0  0  0  0  0  0  0  0  0  0  0  0
   -4.4169    1.5974    0.0000 O   0  0  0  0  0  0  0  0  0  0  0  0
  2  1  1  6
  2  3  1  0
  3  4  1  0
  4  5  2  0
  5  6  1  0
  6  7  1  0
  6  8  2  0
  8  9  1  0
  2 10  1  0
 10 11  1  0
 11 12  2  0
 11 13  1  0
  9  3  2  0
M  END
>  <rName>  (1678) 
bAla_3SPh_4F

>  <PQ_SYMBOL>  (1678) 
bAla_3SPh_4F

>  <FULL_NAME>  (1678) 
(R)-3-amino-3-(4-fluorophenyl)propanoic acid

>  <IUPAC_CONDENSED>  (1678) 
bAla(3S-Ph(4-F))

>  <IUPAC>  (1678) 
(3R)-3-amino-3-(4-fluorophenyl)propanoic acid

>  <TYPE>  (1678) 
Backbone

>  <CLASS>  (1678) 
beta

>  <ANALOG>  (1678) 
X

>  <MOL_WT>  (1678) 
183.18199999999996

>  <LOGP>  (1678) 
1.3002000000000002

>  <TPSA>  (1678) 
63.32000000000001

>  <POPULARITY>  (1678) 
9.7

>  <PROTECTED>  (1678) 
TRUE

>  <SMILES>  (1678) 
N[C@@H](c1(ccc(F)cc1))CC(=O)O

>  <INCHIKEY>  (1678) 
CPGFMWPQXUXQRX-MRVPVSSYSA-N

$$$$
bAla_3SPh_4Me
     RDKit          2D

 13 13  0  0  0  0  0  0  0  0999 V2000
   -1.5598   -1.8792    0.0000 N   0  0  0  0  0  0  0  0  0  0  0  0
   -1.0324   -0.4750    0.0000 C   0  0  0  0  0  0  0  0  0  0  0  0
    0.4474   -0.2297    0.0000 C   0  0  0  0  0  0  0  0  0  0  0  0
    0.9749    1.1745    0.0000 C   0  0  0  0  0  0  0  0  0  0  0  0
    2.4547    1.4199    0.0000 C   0  0  0  0  0  0  0  0  0  0  0  0
    3.4070    0.2610    0.0000 C   0  0  0  0  0  0  0  0  0  0  0  0
    4.8868    0.5063    0.0000 C   0  0  0  0  0  0  0  0  0  0  0  0
    2.8796   -1.1432    0.0000 C   0  0  0  0  0  0  0  0  0  0  0  0
    1.3998   -1.3886    0.0000 C   0  0  0  0  0  0  0  0  0  0  0  0
   -1.9847    0.6838    0.0000 C   0  0  0  0  0  0  0  0  0  0  0  0
   -3.4645    0.4385    0.0000 C   0  0  0  0  0  0  0  0  0  0  0  0
   -3.9920   -0.9657    0.0000 O   0  0  0  0  0  0  0  0  0  0  0  0
   -4.4169    1.5974    0.0000 O   0  0  0  0  0  0  0  0  0  0  0  0
  2  1  1  6
  2  3  1  0
  3  4  1  0
  4  5  2  0
  5  6  1  0
  6  7  1  0
  6  8  2  0
  8  9  1  0
  2 10  1  0
 10 11  1  0
 11 12  2  0
 11 13  1  0
  9  3  2  0
M  END
>  <rName>  (1679) 
bAla_3SPh_4Me

>  <PQ_SYMBOL>  (1679) 
bAla_3SPh_4Me

>  <FULL_NAME>  (1679) 
(R)-3-amino-3-(p-tolyl)propanoic acid

>  <IUPAC_CONDENSED>  (1679) 
bAla(3S-Ph(4-Me))

>  <IUPAC>  (1679) 
(3R)-3-amino-3-(4-methylphenyl)propanoic acid

>  <TYPE>  (1679) 
Backbone

>  <CLASS>  (1679) 
beta

>  <ANALOG>  (1679) 
X

>  <MOL_WT>  (1679) 
179.21899999999997

>  <LOGP>  (1679) 
1.4695200000000002

>  <TPSA>  (1679) 
63.32000000000001

>  <POPULARITY>  (1679) 
9.7

>  <PROTECTED>  (1679) 
TRUE

>  <SMILES>  (1679) 
N[C@@H](c1(ccc(C)cc1))CC(=O)O

>  <INCHIKEY>  (1679) 
XPDAKEOBPKFUAH-SECBINFHSA-N

$$$$
bAla_3RPh_4Me
     RDKit          2D

 13 13  0  0  0  0  0  0  0  0999 V2000
   -1.5598   -1.8792    0.0000 N   0  0  0  0  0  0  0  0  0  0  0  0
   -1.0324   -0.4750    0.0000 C   0  0  0  0  0  0  0  0  0  0  0  0
    0.4474   -0.2297    0.0000 C   0  0  0  0  0  0  0  0  0  0  0  0
    0.9749    1.1745    0.0000 C   0  0  0  0  0  0  0  0  0  0  0  0
    2.4547    1.4199    0.0000 C   0  0  0  0  0  0  0  0  0  0  0  0
    3.4070    0.2610    0.0000 C   0  0  0  0  0  0  0  0  0  0  0  0
    4.8868    0.5063    0.0000 C   0  0  0  0  0  0  0  0  0  0  0  0
    2.8796   -1.1432    0.0000 C   0  0  0  0  0  0  0  0  0  0  0  0
    1.3998   -1.3886    0.0000 C   0  0  0  0  0  0  0  0  0  0  0  0
   -1.9847    0.6838    0.0000 C   0  0  0  0  0  0  0  0  0  0  0  0
   -3.4645    0.4385    0.0000 C   0  0  0  0  0  0  0  0  0  0  0  0
   -3.9920   -0.9657    0.0000 O   0  0  0  0  0  0  0  0  0  0  0  0
   -4.4169    1.5974    0.0000 O   0  0  0  0  0  0  0  0  0  0  0  0
  2  1  1  1
  2  3  1  0
  3  4  1  0
  4  5  2  0
  5  6  1  0
  6  7  1  0
  6  8  2  0
  8  9  1  0
  2 10  1  0
 10 11  1  0
 11 12  2  0
 11 13  1  0
  9  3  2  0
M  END
>  <rName>  (1680) 
bAla_3RPh_4Me

>  <PQ_SYMBOL>  (1680) 
bAla_3RPh_4Me

>  <FULL_NAME>  (1680) 
(S)-3-amino-3-(p-tolyl)propanoic acid

>  <IUPAC_CONDENSED>  (1680) 
bAla(3R-Ph(4-Me))

>  <IUPAC>  (1680) 
(3S)-3-amino-3-(4-methylphenyl)propanoic acid

>  <TYPE>  (1680) 
Backbone

>  <CLASS>  (1680) 
beta

>  <ANALOG>  (1680) 
X

>  <MOL_WT>  (1680) 
179.21899999999997

>  <LOGP>  (1680) 
1.4695200000000002

>  <TPSA>  (1680) 
63.32000000000001

>  <POPULARITY>  (1680) 
10.2

>  <PROTECTED>  (1680) 
TRUE

>  <SMILES>  (1680) 
N[C@H](c1(ccc(C)cc1))CC(=O)O

>  <INCHIKEY>  (1680) 
XPDAKEOBPKFUAH-VIFPVBQESA-N

$$$$
bAla_3RPh_4NO2
     RDKit          2D

 15 15  0  0  0  0  0  0  0  0999 V2000
   -2.3844   -1.8721    0.0000 N   0  0  0  0  0  0  0  0  0  0  0  0
   -1.8029   -0.4894    0.0000 C   0  0  0  0  0  0  0  0  0  0  0  0
   -0.3147   -0.3016    0.0000 C   0  0  0  0  0  0  0  0  0  0  0  0
    0.2667    1.0811    0.0000 C   0  0  0  0  0  0  0  0  0  0  0  0
    1.7549    1.2689    0.0000 C   0  0  0  0  0  0  0  0  0  0  0  0
    2.6617    0.0740    0.0000 C   0  0  0  0  0  0  0  0  0  0  0  0
    2.0802   -1.3087    0.0000 C   0  0  0  0  0  0  0  0  0  0  0  0
    0.5920   -1.4965    0.0000 C   0  0  0  0  0  0  0  0  0  0  0  0
    4.1499    0.2618    0.0000 N   0  0  0  0  0  0  0  0  0  0  0  0
    4.7313    1.6445    0.0000 O   0  0  0  0  0  0  0  0  0  0  0  0
    5.0566   -0.9331    0.0000 O   0  0  0  0  0  0  0  0  0  0  0  0
   -2.7097    0.7055    0.0000 C   0  0  0  0  0  0  0  0  0  0  0  0
   -4.1978    0.5177    0.0000 C   0  0  0  0  0  0  0  0  0  0  0  0
   -4.7793   -0.8650    0.0000 O   0  0  0  0  0  0  0  0  0  0  0  0
   -5.1046    1.7127    0.0000 O   0  0  0  0  0  0  0  0  0  0  0  0
  2  1  1  1
  2  3  1  0
  3  4  1  0
  4  5  2  0
  5  6  1  0
  6  7  2  0
  7  8  1  0
  6  9  1  0
  9 10  2  0
  9 11  1  0
  2 12  1  0
 12 13  1  0
 13 14  2  0
 13 15  1  0
  8  3  2  0
M  CHG  2   9   1  11  -1
M  END
>  <rName>  (1681) 
bAla_3RPh_4NO2

>  <PQ_SYMBOL>  (1681) 
bAla_3RPh_4NO2

>  <FULL_NAME>  (1681) 
(S)-3-amino-3-(4-nitrophenyl)propanoic acid

>  <IUPAC_CONDENSED>  (1681) 
bAla(3R-Ph(4-NO2))

>  <IUPAC>  (1681) 
(3S)-3-amino-3-(4-nitrophenyl)propanoic acid

>  <TYPE>  (1681) 
Backbone

>  <CLASS>  (1681) 
beta

>  <ANALOG>  (1681) 
Lys

>  <MOL_WT>  (1681) 
210.18899999999996

>  <LOGP>  (1681) 
1.0693

>  <TPSA>  (1681) 
106.46

>  <POPULARITY>  (1681) 
6.9

>  <PROTECTED>  (1681) 
TRUE

>  <SMILES>  (1681) 
N[C@H](c1(ccc(cc1)[N+](=O)[O-]))CC(=O)O

>  <INCHIKEY>  (1681) 
JVQPVKJZKRICRR-QMMMGPOBSA-N

$$$$
bAla_3RPh_2Me
     RDKit          2D

 13 13  0  0  0  0  0  0  0  0999 V2000
   -1.0916   -1.7365    0.0000 N   0  0  0  0  0  0  0  0  0  0  0  0
   -0.6994   -0.2887    0.0000 C   0  0  0  0  0  0  0  0  0  0  0  0
    0.7506    0.0955    0.0000 C   0  0  0  0  0  0  0  0  0  0  0  0
    1.1428    1.5433    0.0000 C   0  0  0  0  0  0  0  0  0  0  0  0
    2.5927    1.9276    0.0000 C   0  0  0  0  0  0  0  0  0  0  0  0
    3.6505    0.8640    0.0000 C   0  0  0  0  0  0  0  0  0  0  0  0
    3.2583   -0.5838    0.0000 C   0  0  0  0  0  0  0  0  0  0  0  0
    1.8083   -0.9680    0.0000 C   0  0  0  0  0  0  0  0  0  0  0  0
    1.4161   -2.4159    0.0000 C   0  0  0  0  0  0  0  0  0  0  0  0
   -1.7571    0.7749    0.0000 C   0  0  0  0  0  0  0  0  0  0  0  0
   -3.2071    0.3906    0.0000 C   0  0  0  0  0  0  0  0  0  0  0  0
   -3.5993   -1.0572    0.0000 O   0  0  0  0  0  0  0  0  0  0  0  0
   -4.2648    1.4542    0.0000 O   0  0  0  0  0  0  0  0  0  0  0  0
  2  1  1  1
  2  3  1  0
  3  4  2  0
  4  5  1  0
  5  6  2  0
  6  7  1  0
  7  8  2  0
  8  9  1  0
  2 10  1  0
 10 11  1  0
 11 12  2  0
 11 13  1  0
  8  3  1  0
M  END
>  <rName>  (1682) 
bAla_3RPh_2Me

>  <PQ_SYMBOL>  (1682) 
bAla_3RPh_2Me

>  <FULL_NAME>  (1682) 
(S)-3-amino-3-(o-tolyl)propanoic acid

>  <IUPAC_CONDENSED>  (1682) 
bAla(3R-Ph(2-Me))

>  <IUPAC>  (1682) 
(3S)-3-amino-3-(2-methylphenyl)propanoic acid

>  <TYPE>  (1682) 
Backbone

>  <CLASS>  (1682) 
beta

>  <ANALOG>  (1682) 
X

>  <MOL_WT>  (1682) 
179.21899999999997

>  <LOGP>  (1682) 
1.4695200000000002

>  <TPSA>  (1682) 
63.32000000000001

>  <POPULARITY>  (1682) 
9.7

>  <PROTECTED>  (1682) 
TRUE

>  <SMILES>  (1682) 
N[C@H](c1(ccccc1C))CC(=O)O

>  <INCHIKEY>  (1682) 
GORGZFRGYDIRJA-VIFPVBQESA-N

$$$$
bAla_3RPh_3Me
     RDKit          2D

 13 13  0  0  0  0  0  0  0  0999 V2000
   -1.2291   -1.8553    0.0000 N   0  0  0  0  0  0  0  0  0  0  0  0
   -0.9051   -0.3907    0.0000 C   0  0  0  0  0  0  0  0  0  0  0  0
    0.5252    0.0611    0.0000 C   0  0  0  0  0  0  0  0  0  0  0  0
    0.8491    1.5257    0.0000 C   0  0  0  0  0  0  0  0  0  0  0  0
    2.2795    1.9775    0.0000 C   0  0  0  0  0  0  0  0  0  0  0  0
    3.3859    0.9646    0.0000 C   0  0  0  0  0  0  0  0  0  0  0  0
    3.0620   -0.5000    0.0000 C   0  0  0  0  0  0  0  0  0  0  0  0
    4.1684   -1.5128    0.0000 C   0  0  0  0  0  0  0  0  0  0  0  0
    1.6316   -0.9517    0.0000 C   0  0  0  0  0  0  0  0  0  0  0  0
   -2.0116    0.6222    0.0000 C   0  0  0  0  0  0  0  0  0  0  0  0
   -3.4419    0.1704    0.0000 C   0  0  0  0  0  0  0  0  0  0  0  0
   -3.7658   -1.2942    0.0000 O   0  0  0  0  0  0  0  0  0  0  0  0
   -4.5483    1.1832    0.0000 O   0  0  0  0  0  0  0  0  0  0  0  0
  2  1  1  1
  2  3  1  0
  3  4  2  0
  4  5  1  0
  5  6  2  0
  6  7  1  0
  7  8  1  0
  7  9  2  0
  2 10  1  0
 10 11  1  0
 11 12  2  0
 11 13  1  0
  9  3  1  0
M  END
>  <rName>  (1683) 
bAla_3RPh_3Me

>  <PQ_SYMBOL>  (1683) 
bAla_3RPh_3Me

>  <FULL_NAME>  (1683) 
(S)-3-amino-3-(m-tolyl)propanoic acid

>  <IUPAC_CONDENSED>  (1683) 
bAla(3R-Ph(3-Me))

>  <IUPAC>  (1683) 
(3S)-3-amino-3-(3-methylphenyl)propanoic acid

>  <TYPE>  (1683) 
Backbone

>  <CLASS>  (1683) 
beta

>  <ANALOG>  (1683) 
X

>  <MOL_WT>  (1683) 
179.21899999999997

>  <LOGP>  (1683) 
1.4695200000000002

>  <TPSA>  (1683) 
63.32000000000001

>  <POPULARITY>  (1683) 
8.3

>  <PROTECTED>  (1683) 
TRUE

>  <SMILES>  (1683) 
N[C@H](c1(cccc(C)c1))CC(=O)O

>  <INCHIKEY>  (1683) 
HMLYKNGYKKJNLC-VIFPVBQESA-N

$$$$
bAla_3RPh_2OMe
     RDKit          2D

 14 14  0  0  0  0  0  0  0  0999 V2000
   -1.0551   -1.6460    0.0000 N   0  0  0  0  0  0  0  0  0  0  0  0
   -0.8626   -0.1584    0.0000 C   0  0  0  0  0  0  0  0  0  0  0  0
    0.5220    0.4186    0.0000 C   0  0  0  0  0  0  0  0  0  0  0  0
    0.7146    1.9062    0.0000 C   0  0  0  0  0  0  0  0  0  0  0  0
    2.0991    2.4832    0.0000 C   0  0  0  0  0  0  0  0  0  0  0  0
    3.2911    1.5726    0.0000 C   0  0  0  0  0  0  0  0  0  0  0  0
    3.0986    0.0851    0.0000 C   0  0  0  0  0  0  0  0  0  0  0  0
    1.7140   -0.4920    0.0000 C   0  0  0  0  0  0  0  0  0  0  0  0
    1.5214   -1.9796    0.0000 O   0  0  0  0  0  0  0  0  0  0  0  0
    2.7134   -2.8901    0.0000 C   0  0  0  0  0  0  0  0  0  0  0  0
   -2.0546    0.7521    0.0000 C   0  0  0  0  0  0  0  0  0  0  0  0
   -3.4392    0.1751    0.0000 C   0  0  0  0  0  0  0  0  0  0  0  0
   -3.6317   -1.3125    0.0000 O   0  0  0  0  0  0  0  0  0  0  0  0
   -4.6312    1.0857    0.0000 O   0  0  0  0  0  0  0  0  0  0  0  0
  2  1  1  1
  2  3  1  0
  3  4  2  0
  4  5  1  0
  5  6  2  0
  6  7  1  0
  7  8  2  0
  8  9  1  0
  9 10  1  0
  2 11  1  0
 11 12  1  0
 12 13  2  0
 12 14  1  0
  8  3  1  0
M  END
>  <rName>  (1684) 
bAla_3RPh_2OMe

>  <PQ_SYMBOL>  (1684) 
bAla_3RPh_2OMe

>  <FULL_NAME>  (1684) 
(S)-3-amino-3-(2-methoxyphenyl)propanoic acid

>  <IUPAC_CONDENSED>  (1684) 
bAla(3R-Ph(2-OMe))

>  <IUPAC>  (1684) 
(3S)-3-amino-3-(2-methoxyphenyl)propanoic acid

>  <TYPE>  (1684) 
Backbone

>  <CLASS>  (1684) 
beta

>  <ANALOG>  (1684) 
X

>  <MOL_WT>  (1684) 
195.21799999999996

>  <LOGP>  (1684) 
1.1697

>  <TPSA>  (1684) 
72.55

>  <POPULARITY>  (1684) 
7.6

>  <PROTECTED>  (1684) 
TRUE

>  <SMILES>  (1684) 
N[C@H](c1(ccccc1OC))CC(=O)O

>  <INCHIKEY>  (1684) 
UAZGIQATDPCZHH-QMMMGPOBSA-N

$$$$
bAla_3RPh_3OMe
     RDKit          2D

 14 14  0  0  0  0  0  0  0  0999 V2000
   -1.2988   -1.8090    0.0000 N   0  0  0  0  0  0  0  0  0  0  0  0
   -1.1504   -0.3163    0.0000 C   0  0  0  0  0  0  0  0  0  0  0  0
    0.2165    0.3015    0.0000 C   0  0  0  0  0  0  0  0  0  0  0  0
    0.3649    1.7941    0.0000 C   0  0  0  0  0  0  0  0  0  0  0  0
    1.7317    2.4119    0.0000 C   0  0  0  0  0  0  0  0  0  0  0  0
    2.9502    1.5371    0.0000 C   0  0  0  0  0  0  0  0  0  0  0  0
    2.8018    0.0445    0.0000 C   0  0  0  0  0  0  0  0  0  0  0  0
    4.0203   -0.8304    0.0000 O   0  0  0  0  0  0  0  0  0  0  0  0
    3.8719   -2.3230    0.0000 C   0  0  0  0  0  0  0  0  0  0  0  0
    1.4349   -0.5733    0.0000 C   0  0  0  0  0  0  0  0  0  0  0  0
   -2.3689    0.5585    0.0000 C   0  0  0  0  0  0  0  0  0  0  0  0
   -3.7357   -0.0593    0.0000 C   0  0  0  0  0  0  0  0  0  0  0  0
   -3.8841   -1.5519    0.0000 O   0  0  0  0  0  0  0  0  0  0  0  0
   -4.9542    0.8155    0.0000 O   0  0  0  0  0  0  0  0  0  0  0  0
  2  1  1  1
  2  3  1  0
  3  4  2  0
  4  5  1  0
  5  6  2  0
  6  7  1  0
  7  8  1  0
  8  9  1  0
  7 10  2  0
  2 11  1  0
 11 12  1  0
 12 13  2  0
 12 14  1  0
 10  3  1  0
M  END
>  <rName>  (1685) 
bAla_3RPh_3OMe

>  <PQ_SYMBOL>  (1685) 
bAla_3RPh_3OMe

>  <FULL_NAME>  (1685) 
(S)-3-amino-3-(3-methoxyphenyl)propanoic acid

>  <IUPAC_CONDENSED>  (1685) 
bAla(3R-Ph(3-OMe))

>  <IUPAC>  (1685) 
(3S)-3-amino-3-(3-methoxyphenyl)propanoic acid

>  <TYPE>  (1685) 
Backbone

>  <CLASS>  (1685) 
beta

>  <ANALOG>  (1685) 
X

>  <MOL_WT>  (1685) 
195.21799999999996

>  <LOGP>  (1685) 
1.1697

>  <TPSA>  (1685) 
72.55

>  <POPULARITY>  (1685) 
9.9

>  <PROTECTED>  (1685) 
TRUE

>  <SMILES>  (1685) 
N[C@H](c1(cccc(OC)c1))CC(=O)O

>  <INCHIKEY>  (1685) 
FGMPGCPZEOXEES-VIFPVBQESA-N

$$$$
bAla_3RPh_4OMe
     RDKit          2D

 14 14  0  0  0  0  0  0  0  0999 V2000
   -1.9239   -1.8882    0.0000 N   0  0  0  0  0  0  0  0  0  0  0  0
   -1.4367   -0.4695    0.0000 C   0  0  0  0  0  0  0  0  0  0  0  0
    0.0356   -0.1821    0.0000 C   0  0  0  0  0  0  0  0  0  0  0  0
    0.5228    1.2365    0.0000 C   0  0  0  0  0  0  0  0  0  0  0  0
    1.9950    1.5239    0.0000 C   0  0  0  0  0  0  0  0  0  0  0  0
    2.9800    0.3926    0.0000 C   0  0  0  0  0  0  0  0  0  0  0  0
    4.4522    0.6799    0.0000 O   0  0  0  0  0  0  0  0  0  0  0  0
    5.4372   -0.4514    0.0000 C   0  0  0  0  0  0  0  0  0  0  0  0
    2.4927   -1.0261    0.0000 C   0  0  0  0  0  0  0  0  0  0  0  0
    1.0205   -1.3134    0.0000 C   0  0  0  0  0  0  0  0  0  0  0  0
   -2.4216    0.6618    0.0000 C   0  0  0  0  0  0  0  0  0  0  0  0
   -3.8939    0.3744    0.0000 C   0  0  0  0  0  0  0  0  0  0  0  0
   -4.3811   -1.0442    0.0000 O   0  0  0  0  0  0  0  0  0  0  0  0
   -4.8788    1.5057    0.0000 O   0  0  0  0  0  0  0  0  0  0  0  0
  2  1  1  1
  2  3  1  0
  3  4  1  0
  4  5  2  0
  5  6  1  0
  6  7  1  0
  7  8  1  0
  6  9  2  0
  9 10  1  0
  2 11  1  0
 11 12  1  0
 12 13  2  0
 12 14  1  0
 10  3  2  0
M  END
>  <rName>  (1686) 
bAla_3RPh_4OMe

>  <PQ_SYMBOL>  (1686) 
bAla_3RPh_4OMe

>  <FULL_NAME>  (1686) 
(S)-3-amino-3-(4-methoxyphenyl)propanoic acid

>  <IUPAC_CONDENSED>  (1686) 
bAla(3R-Ph(4-OMe))

>  <IUPAC>  (1686) 
(3S)-3-amino-3-(4-methoxyphenyl)propanoic acid

>  <TYPE>  (1686) 
Backbone

>  <CLASS>  (1686) 
beta

>  <ANALOG>  (1686) 
X

>  <MOL_WT>  (1686) 
195.21799999999996

>  <LOGP>  (1686) 
1.1697

>  <TPSA>  (1686) 
72.55

>  <POPULARITY>  (1686) 
11.1

>  <PROTECTED>  (1686) 
TRUE

>  <SMILES>  (1686) 
N[C@H](c1(ccc(OC)cc1))CC(=O)O

>  <INCHIKEY>  (1686) 
NYTANCDDCQVQHG-VIFPVBQESA-N

$$$$
bAla_3RPh_24diCl
     RDKit          2D

 14 14  0  0  0  0  0  0  0  0999 V2000
   -1.5776   -1.7216    0.0000 N   0  0  0  0  0  0  0  0  0  0  0  0
   -1.0871   -0.3041    0.0000 C   0  0  0  0  0  0  0  0  0  0  0  0
    0.3858   -0.0201    0.0000 C   0  0  0  0  0  0  0  0  0  0  0  0
    0.8763    1.3974    0.0000 C   0  0  0  0  0  0  0  0  0  0  0  0
    2.3492    1.6814    0.0000 C   0  0  0  0  0  0  0  0  0  0  0  0
    3.3315    0.5478    0.0000 C   0  0  0  0  0  0  0  0  0  0  0  0
    4.8044    0.8318    0.0000 Cl  0  0  0  0  0  0  0  0  0  0  0  0
    2.8410   -0.8697    0.0000 C   0  0  0  0  0  0  0  0  0  0  0  0
    1.3682   -1.1537    0.0000 C   0  0  0  0  0  0  0  0  0  0  0  0
    0.8777   -2.5712    0.0000 Cl  0  0  0  0  0  0  0  0  0  0  0  0
   -2.0695    0.8295    0.0000 C   0  0  0  0  0  0  0  0  0  0  0  0
   -3.5423    0.5455    0.0000 C   0  0  0  0  0  0  0  0  0  0  0  0
   -4.0328   -0.8721    0.0000 O   0  0  0  0  0  0  0  0  0  0  0  0
   -4.5247    1.6790    0.0000 O   0  0  0  0  0  0  0  0  0  0  0  0
  2  1  1  1
  2  3  1  0
  3  4  1  0
  4  5  2  0
  5  6  1  0
  6  7  1  0
  6  8  2  0
  8  9  1  0
  9 10  1  0
  2 11  1  0
 11 12  1  0
 12 13  2  0
 12 14  1  0
  9  3  2  0
M  END
>  <rName>  (1687) 
bAla_3RPh_24diCl

>  <PQ_SYMBOL>  (1687) 
bAla_3RPh_24diCl

>  <FULL_NAME>  (1687) 
(S)-3-amino-3-(2,4-dichlorophenyl)propanoic acid

>  <IUPAC_CONDENSED>  (1687) 
bAla(3R-Ph(2,4-diCl))

>  <IUPAC>  (1687) 
(3S)-3-amino-3-(2,4-dichlorophenyl)propanoic acid

>  <TYPE>  (1687) 
Backbone

>  <CLASS>  (1687) 
beta

>  <ANALOG>  (1687) 
X

>  <MOL_WT>  (1687) 
234.08199999999997

>  <LOGP>  (1687) 
2.4679

>  <TPSA>  (1687) 
63.32000000000001

>  <POPULARITY>  (1687) 
6.4

>  <PROTECTED>  (1687) 
TRUE

>  <SMILES>  (1687) 
N[C@H](c1(ccc(Cl)cc1Cl))CC(=O)O

>  <INCHIKEY>  (1687) 
QGHQDRDWQIHGKZ-QMMMGPOBSA-N

$$$$
bAla_3RPh_23diCl
     RDKit          2D

 14 14  0  0  0  0  0  0  0  0999 V2000
   -1.2589   -1.7308    0.0000 N   0  0  0  0  0  0  0  0  0  0  0  0
   -0.9897   -0.2551    0.0000 C   0  0  0  0  0  0  0  0  0  0  0  0
    0.4228    0.2496    0.0000 C   0  0  0  0  0  0  0  0  0  0  0  0
    0.6920    1.7253    0.0000 C   0  0  0  0  0  0  0  0  0  0  0  0
    2.1045    2.2300    0.0000 C   0  0  0  0  0  0  0  0  0  0  0  0
    3.2479    1.2591    0.0000 C   0  0  0  0  0  0  0  0  0  0  0  0
    2.9787   -0.2166    0.0000 C   0  0  0  0  0  0  0  0  0  0  0  0
    4.1221   -1.1875    0.0000 Cl  0  0  0  0  0  0  0  0  0  0  0  0
    1.5662   -0.7213    0.0000 C   0  0  0  0  0  0  0  0  0  0  0  0
    1.2970   -2.1970    0.0000 Cl  0  0  0  0  0  0  0  0  0  0  0  0
   -2.1331    0.7158    0.0000 C   0  0  0  0  0  0  0  0  0  0  0  0
   -3.5456    0.2111    0.0000 C   0  0  0  0  0  0  0  0  0  0  0  0
   -3.8148   -1.2646    0.0000 O   0  0  0  0  0  0  0  0  0  0  0  0
   -4.6890    1.1820    0.0000 O   0  0  0  0  0  0  0  0  0  0  0  0
  2  1  1  1
  2  3  1  0
  3  4  2  0
  4  5  1  0
  5  6  2  0
  6  7  1  0
  7  8  1  0
  7  9  2  0
  9 10  1  0
  2 11  1  0
 11 12  1  0
 12 13  2  0
 12 14  1  0
  9  3  1  0
M  END
>  <rName>  (1688) 
bAla_3RPh_23diCl

>  <PQ_SYMBOL>  (1688) 
bAla_3RPh_23diCl

>  <FULL_NAME>  (1688) 
(S)-3-amino-3-(2,3-dichlorophenyl)propanoic acid

>  <IUPAC_CONDENSED>  (1688) 
bAla(3R-Ph(2,3-diCl))

>  <IUPAC>  (1688) 
(3S)-3-amino-3-(2,3-dichlorophenyl)propanoic acid

>  <TYPE>  (1688) 
Backbone

>  <CLASS>  (1688) 
beta

>  <ANALOG>  (1688) 
X

>  <MOL_WT>  (1688) 
234.08199999999997

>  <LOGP>  (1688) 
2.4679

>  <TPSA>  (1688) 
63.32000000000001

>  <POPULARITY>  (1688) 
6.5

>  <PROTECTED>  (1688) 
TRUE

>  <SMILES>  (1688) 
N[C@H](c1(cccc(Cl)c1Cl))CC(=O)O

>  <INCHIKEY>  (1688) 
GQKLESLYMHWBOP-ZETCQYMHSA-N

$$$$
bAla_3Rpyrid3yl
     RDKit          2D

 12 12  0  0  0  0  0  0  0  0999 V2000
   -1.0786   -1.8814    0.0000 N   0  0  0  0  0  0  0  0  0  0  0  0
   -0.6074   -0.4573    0.0000 C   0  0  0  0  0  0  0  0  0  0  0  0
    0.8615   -0.1534    0.0000 C   0  0  0  0  0  0  0  0  0  0  0  0
    1.3327    1.2707    0.0000 C   0  0  0  0  0  0  0  0  0  0  0  0
    2.8016    1.5746    0.0000 C   0  0  0  0  0  0  0  0  0  0  0  0
    3.7992    0.4545    0.0000 C   0  0  0  0  0  0  0  0  0  0  0  0
    3.3280   -0.9696    0.0000 N   0  0  0  0  0  0  0  0  0  0  0  0
    1.8591   -1.2735    0.0000 C   0  0  0  0  0  0  0  0  0  0  0  0
   -1.6051    0.6628    0.0000 C   0  0  0  0  0  0  0  0  0  0  0  0
   -3.0740    0.3588    0.0000 C   0  0  0  0  0  0  0  0  0  0  0  0
   -3.5452   -1.0652    0.0000 O   0  0  0  0  0  0  0  0  0  0  0  0
   -4.0716    1.4790    0.0000 O   0  0  0  0  0  0  0  0  0  0  0  0
  2  1  1  1
  2  3  1  0
  3  4  2  0
  4  5  1  0
  5  6  2  0
  6  7  1  0
  7  8  2  0
  2  9  1  0
  9 10  1  0
 10 11  2  0
 10 12  1  0
  8  3  1  0
M  END
>  <rName>  (1689) 
bAla_3Rpyrid3yl

>  <PQ_SYMBOL>  (1689) 
bAla_3Rpyrid3yl

>  <FULL_NAME>  (1689) 
(S)-3-amino-3-(pyridin-3-yl)propanoic acid

>  <IUPAC_CONDENSED>  (1689) 
bAla(3R-pyrid-3-yl)

>  <IUPAC>  (1689) 
(3S)-3-amino-3-(pyridin-3-yl)propanoic acid

>  <TYPE>  (1689) 
Backbone

>  <CLASS>  (1689) 
beta

>  <ANALOG>  (1689) 
X

>  <MOL_WT>  (1689) 
166.17999999999998

>  <LOGP>  (1689) 
0.5561

>  <TPSA>  (1689) 
76.21

>  <POPULARITY>  (1689) 
11

>  <PROTECTED>  (1689) 
TRUE

>  <SMILES>  (1689) 
N[C@H](c1(cccnc1))CC(=O)O

>  <INCHIKEY>  (1689) 
QOTCEJINJFHMLO-ZETCQYMHSA-N

$$$$
bAla_3Rthien2yl
     RDKit          2D

 11 11  0  0  0  0  0  0  0  0999 V2000
   -0.7304   -1.8619    0.0000 N   0  0  0  0  0  0  0  0  0  0  0  0
   -0.2874   -0.4288    0.0000 C   0  0  0  0  0  0  0  0  0  0  0  0
    1.1751   -0.0958    0.0000 C   0  0  0  0  0  0  0  0  0  0  0  0
    2.3042   -1.0834    0.0000 C   0  0  0  0  0  0  0  0  0  0  0  0
    3.5923   -0.3148    0.0000 C   0  0  0  0  0  0  0  0  0  0  0  0
    3.2594    1.1478    0.0000 C   0  0  0  0  0  0  0  0  0  0  0  0
    1.7655    1.2831    0.0000 S   0  0  0  0  0  0  0  0  0  0  0  0
   -1.3071    0.6714    0.0000 C   0  0  0  0  0  0  0  0  0  0  0  0
   -2.7697    0.3385    0.0000 C   0  0  0  0  0  0  0  0  0  0  0  0
   -3.2126   -1.0946    0.0000 O   0  0  0  0  0  0  0  0  0  0  0  0
   -3.7893    1.4386    0.0000 O   0  0  0  0  0  0  0  0  0  0  0  0
  2  1  1  1
  2  3  1  0
  3  4  2  0
  4  5  1  0
  5  6  2  0
  6  7  1  0
  2  8  1  0
  8  9  1  0
  9 10  2  0
  9 11  1  0
  7  3  1  0
M  END
>  <rName>  (1690) 
bAla_3Rthien2yl

>  <PQ_SYMBOL>  (1690) 
bAla_3Rthien2yl

>  <FULL_NAME>  (1690) 
(S)-3-amino-3-(thiophen-2-yl)propanoic acid

>  <IUPAC_CONDENSED>  (1690) 
bAla(3R-thien-2-yl)

>  <IUPAC>  (1690) 
(3S)-3-amino-3-(thiophen-2-yl)propanoic acid

>  <TYPE>  (1690) 
Backbone

>  <CLASS>  (1690) 
beta

>  <ANALOG>  (1690) 
X

>  <MOL_WT>  (1690) 
171.221

>  <LOGP>  (1690) 
1.2226000000000001

>  <TPSA>  (1690) 
63.32000000000001

>  <POPULARITY>  (1690) 
8.9

>  <PROTECTED>  (1690) 
TRUE

>  <SMILES>  (1690) 
N[C@H](c1(cccs1))CC(=O)O

>  <INCHIKEY>  (1690) 
GYAYLYLPTPXESE-YFKPBYRVSA-N

$$$$
bAla_3Rnaphth1yl
     RDKit          2D

 16 17  0  0  0  0  0  0  0  0999 V2000
   -1.3768    1.6435    0.0000 N   0  0  0  0  0  0  0  0  0  0  0  0
   -1.3799    0.1435    0.0000 C   0  0  0  0  0  0  0  0  0  0  0  0
   -0.0825   -0.6092    0.0000 C   0  0  0  0  0  0  0  0  0  0  0  0
   -0.0856   -2.1092    0.0000 C   0  0  0  0  0  0  0  0  0  0  0  0
    1.2119   -2.8619    0.0000 C   0  0  0  0  0  0  0  0  0  0  0  0
    2.5125   -2.1146    0.0000 C   0  0  0  0  0  0  0  0  0  0  0  0
    2.5156   -0.6146    0.0000 C   0  0  0  0  0  0  0  0  0  0  0  0
    3.8162    0.1327    0.0000 C   0  0  0  0  0  0  0  0  0  0  0  0
    3.8193    1.6327    0.0000 C   0  0  0  0  0  0  0  0  0  0  0  0
    2.5218    2.3854    0.0000 C   0  0  0  0  0  0  0  0  0  0  0  0
    1.2213    1.6381    0.0000 C   0  0  0  0  0  0  0  0  0  0  0  0
    1.2181    0.1381    0.0000 C   0  0  0  0  0  0  0  0  0  0  0  0
   -2.6805   -0.6038    0.0000 C   0  0  0  0  0  0  0  0  0  0  0  0
   -3.9780    0.1489    0.0000 C   0  0  0  0  0  0  0  0  0  0  0  0
   -3.9749    1.6489    0.0000 O   0  0  0  0  0  0  0  0  0  0  0  0
   -5.2786   -0.5984    0.0000 O   0  0  0  0  0  0  0  0  0  0  0  0
  2  1  1  6
  2  3  1  0
  3  4  2  0
  4  5  1  0
  5  6  2  0
  6  7  1  0
  7  8  2  0
  8  9  1  0
  9 10  2  0
 10 11  1  0
 11 12  2  0
  2 13  1  0
 13 14  1  0
 14 15  2  0
 14 16  1  0
 12  7  1  0
 12  3  1  0
M  END
>  <rName>  (1691) 
bAla_3Rnaphth1yl

>  <PQ_SYMBOL>  (1691) 
bAla_3Rnaphth1yl

>  <FULL_NAME>  (1691) 
(S)-3-amino-3-(naphthalen-1-yl)propanoic acid

>  <IUPAC_CONDENSED>  (1691) 
bAla(3R-naphth-1-yl)

>  <IUPAC>  (1691) 
(3S)-3-amino-3-(naphthalen-1-yl)propanoic acid

>  <TYPE>  (1691) 
Backbone

>  <CLASS>  (1691) 
beta

>  <ANALOG>  (1691) 
X

>  <MOL_WT>  (1691) 
215.25199999999995

>  <LOGP>  (1691) 
2.3143000000000002

>  <TPSA>  (1691) 
63.32000000000001

>  <POPULARITY>  (1691) 
8.9

>  <PROTECTED>  (1691) 
TRUE

>  <SMILES>  (1691) 
N[C@H](c2(cccc1(ccccc12)))CC(=O)O

>  <INCHIKEY>  (1691) 
BIOQBKBTOAMMDG-LBPRGKRZSA-N

$$$$
bAla_3Rnaphth2yl
     RDKit          2D

 16 17  0  0  0  0  0  0  0  0999 V2000
   -2.7878   -1.8484    0.0000 N   0  0  0  0  0  0  0  0  0  0  0  0
   -1.9911   -0.5775    0.0000 C   0  0  0  0  0  0  0  0  0  0  0  0
   -0.4921   -0.6320    0.0000 C   0  0  0  0  0  0  0  0  0  0  0  0
    0.2102   -1.9575    0.0000 C   0  0  0  0  0  0  0  0  0  0  0  0
    1.7092   -2.0120    0.0000 C   0  0  0  0  0  0  0  0  0  0  0  0
    2.5060   -0.7411    0.0000 C   0  0  0  0  0  0  0  0  0  0  0  0
    4.0050   -0.7956    0.0000 C   0  0  0  0  0  0  0  0  0  0  0  0
    4.8017    0.4753    0.0000 C   0  0  0  0  0  0  0  0  0  0  0  0
    4.0994    1.8007    0.0000 C   0  0  0  0  0  0  0  0  0  0  0  0
    2.6004    1.8552    0.0000 C   0  0  0  0  0  0  0  0  0  0  0  0
    1.8037    0.5843    0.0000 C   0  0  0  0  0  0  0  0  0  0  0  0
    0.3047    0.6389    0.0000 C   0  0  0  0  0  0  0  0  0  0  0  0
   -2.6933    0.7479    0.0000 C   0  0  0  0  0  0  0  0  0  0  0  0
   -4.1923    0.8025    0.0000 C   0  0  0  0  0  0  0  0  0  0  0  0
   -4.9891   -0.4685    0.0000 O   0  0  0  0  0  0  0  0  0  0  0  0
   -4.8946    2.1279    0.0000 O   0  0  0  0  0  0  0  0  0  0  0  0
  2  1  1  1
  2  3  1  0
  3  4  1  0
  4  5  2  0
  5  6  1  0
  6  7  2  0
  7  8  1  0
  8  9  2  0
  9 10  1  0
 10 11  2  0
 11 12  1  0
  2 13  1  0
 13 14  1  0
 14 15  2  0
 14 16  1  0
 11  6  1  0
 12  3  2  0
M  END
>  <rName>  (1692) 
bAla_3Rnaphth2yl

>  <PQ_SYMBOL>  (1692) 
bAla_3Rnaphth2yl

>  <FULL_NAME>  (1692) 
(S)-3-amino-3-(naphthalen-2-yl)propanoic acid

>  <IUPAC_CONDENSED>  (1692) 
bAla(3R-naphth-2-yl)

>  <IUPAC>  (1692) 
(3S)-3-amino-3-(naphthalen-2-yl)propanoic acid

>  <TYPE>  (1692) 
Backbone

>  <CLASS>  (1692) 
beta

>  <ANALOG>  (1692) 
X

>  <MOL_WT>  (1692) 
215.25199999999995

>  <LOGP>  (1692) 
2.3143000000000002

>  <TPSA>  (1692) 
63.32000000000001

>  <POPULARITY>  (1692) 
6.2

>  <PROTECTED>  (1692) 
TRUE

>  <SMILES>  (1692) 
N[C@H](c2(ccc1(ccccc1c2)))CC(=O)O

>  <INCHIKEY>  (1692) 
JASNXOXPNZWQRV-LBPRGKRZSA-N

$$$$
bAla_3RPh_3F
     RDKit          2D

 13 13  0  0  0  0  0  0  0  0999 V2000
   -1.2291   -1.8553    0.0000 N   0  0  0  0  0  0  0  0  0  0  0  0
   -0.9051   -0.3907    0.0000 C   0  0  0  0  0  0  0  0  0  0  0  0
    0.5252    0.0611    0.0000 C   0  0  0  0  0  0  0  0  0  0  0  0
    0.8491    1.5257    0.0000 C   0  0  0  0  0  0  0  0  0  0  0  0
    2.2795    1.9775    0.0000 C   0  0  0  0  0  0  0  0  0  0  0  0
    3.3859    0.9646    0.0000 C   0  0  0  0  0  0  0  0  0  0  0  0
    3.0620   -0.5000    0.0000 C   0  0  0  0  0  0  0  0  0  0  0  0
    4.1684   -1.5128    0.0000 F   0  0  0  0  0  0  0  0  0  0  0  0
    1.6316   -0.9517    0.0000 C   0  0  0  0  0  0  0  0  0  0  0  0
   -2.0116    0.6222    0.0000 C   0  0  0  0  0  0  0  0  0  0  0  0
   -3.4419    0.1704    0.0000 C   0  0  0  0  0  0  0  0  0  0  0  0
   -3.7658   -1.2942    0.0000 O   0  0  0  0  0  0  0  0  0  0  0  0
   -4.5483    1.1832    0.0000 O   0  0  0  0  0  0  0  0  0  0  0  0
  2  1  1  1
  2  3  1  0
  3  4  2  0
  4  5  1  0
  5  6  2  0
  6  7  1  0
  7  8  1  0
  7  9  2  0
  2 10  1  0
 10 11  1  0
 11 12  2  0
 11 13  1  0
  9  3  1  0
M  END
>  <rName>  (1693) 
bAla_3RPh_3F

>  <PQ_SYMBOL>  (1693) 
bAla_3RPh_3F

>  <FULL_NAME>  (1693) 
(S)-3-amino-3-(3-fluorophenyl)propanoic acid

>  <IUPAC_CONDENSED>  (1693) 
bAla(3R-Ph(3-F))

>  <IUPAC>  (1693) 
(3S)-3-amino-3-(3-fluorophenyl)propanoic acid

>  <TYPE>  (1693) 
Backbone

>  <CLASS>  (1693) 
beta

>  <ANALOG>  (1693) 
X

>  <MOL_WT>  (1693) 
183.18199999999996

>  <LOGP>  (1693) 
1.3002000000000002

>  <TPSA>  (1693) 
63.32000000000001

>  <POPULARITY>  (1693) 
9.9

>  <PROTECTED>  (1693) 
TRUE

>  <SMILES>  (1693) 
N[C@H](c1(cccc(F)c1))CC(=O)O

>  <INCHIKEY>  (1693) 
GZNJUJNKZBHINS-QMMMGPOBSA-N

$$$$
bAla_3RPh_3Cl
     RDKit          2D

 13 13  0  0  0  0  0  0  0  0999 V2000
   -1.2291   -1.8553    0.0000 N   0  0  0  0  0  0  0  0  0  0  0  0
   -0.9051   -0.3907    0.0000 C   0  0  0  0  0  0  0  0  0  0  0  0
    0.5252    0.0611    0.0000 C   0  0  0  0  0  0  0  0  0  0  0  0
    0.8491    1.5257    0.0000 C   0  0  0  0  0  0  0  0  0  0  0  0
    2.2795    1.9775    0.0000 C   0  0  0  0  0  0  0  0  0  0  0  0
    3.3859    0.9646    0.0000 C   0  0  0  0  0  0  0  0  0  0  0  0
    3.0620   -0.5000    0.0000 C   0  0  0  0  0  0  0  0  0  0  0  0
    4.1684   -1.5128    0.0000 Cl  0  0  0  0  0  0  0  0  0  0  0  0
    1.6316   -0.9517    0.0000 C   0  0  0  0  0  0  0  0  0  0  0  0
   -2.0116    0.6222    0.0000 C   0  0  0  0  0  0  0  0  0  0  0  0
   -3.4419    0.1704    0.0000 C   0  0  0  0  0  0  0  0  0  0  0  0
   -3.7658   -1.2942    0.0000 O   0  0  0  0  0  0  0  0  0  0  0  0
   -4.5483    1.1832    0.0000 O   0  0  0  0  0  0  0  0  0  0  0  0
  2  1  1  1
  2  3  1  0
  3  4  2  0
  4  5  1  0
  5  6  2  0
  6  7  1  0
  7  8  1  0
  7  9  2  0
  2 10  1  0
 10 11  1  0
 11 12  2  0
 11 13  1  0
  9  3  1  0
M  END
>  <rName>  (1694) 
bAla_3RPh_3Cl

>  <PQ_SYMBOL>  (1694) 
bAla_3RPh_3Cl

>  <FULL_NAME>  (1694) 
(S)-3-amino-3-(3-chlorophenyl)propanoic acid

>  <IUPAC_CONDENSED>  (1694) 
bAla(3R-Ph(3-Cl))

>  <IUPAC>  (1694) 
(3S)-3-amino-3-(3-chlorophenyl)propanoic acid

>  <TYPE>  (1694) 
Backbone

>  <CLASS>  (1694) 
beta

>  <ANALOG>  (1694) 
X

>  <MOL_WT>  (1694) 
199.63699999999997

>  <LOGP>  (1694) 
1.8145000000000002

>  <TPSA>  (1694) 
63.32000000000001

>  <POPULARITY>  (1694) 
9

>  <PROTECTED>  (1694) 
TRUE

>  <SMILES>  (1694) 
N[C@H](c1(cccc(Cl)c1))CC(=O)O

>  <INCHIKEY>  (1694) 
LIDRHPCWOYOBIZ-QMMMGPOBSA-N

$$$$
bAla_3RPh_2Br
     RDKit          2D

 13 13  0  0  0  0  0  0  0  0999 V2000
   -1.0916   -1.7365    0.0000 N   0  0  0  0  0  0  0  0  0  0  0  0
   -0.6994   -0.2887    0.0000 C   0  0  0  0  0  0  0  0  0  0  0  0
    0.7506    0.0955    0.0000 C   0  0  0  0  0  0  0  0  0  0  0  0
    1.1428    1.5433    0.0000 C   0  0  0  0  0  0  0  0  0  0  0  0
    2.5927    1.9276    0.0000 C   0  0  0  0  0  0  0  0  0  0  0  0
    3.6505    0.8640    0.0000 C   0  0  0  0  0  0  0  0  0  0  0  0
    3.2583   -0.5838    0.0000 C   0  0  0  0  0  0  0  0  0  0  0  0
    1.8083   -0.9680    0.0000 C   0  0  0  0  0  0  0  0  0  0  0  0
    1.4161   -2.4159    0.0000 Br  0  0  0  0  0  0  0  0  0  0  0  0
   -1.7571    0.7749    0.0000 C   0  0  0  0  0  0  0  0  0  0  0  0
   -3.2071    0.3906    0.0000 C   0  0  0  0  0  0  0  0  0  0  0  0
   -3.5993   -1.0572    0.0000 O   0  0  0  0  0  0  0  0  0  0  0  0
   -4.2648    1.4542    0.0000 O   0  0  0  0  0  0  0  0  0  0  0  0
  2  1  1  1
  2  3  1  0
  3  4  2  0
  4  5  1  0
  5  6  2  0
  6  7  1  0
  7  8  2  0
  8  9  1  0
  2 10  1  0
 10 11  1  0
 11 12  2  0
 11 13  1  0
  8  3  1  0
M  END
>  <rName>  (1695) 
bAla_3RPh_2Br

>  <PQ_SYMBOL>  (1695) 
bAla_3RPh_2Br

>  <FULL_NAME>  (1695) 
(S)-3-amino-3-(2-bromophenyl)propanoic acid

>  <IUPAC_CONDENSED>  (1695) 
bAla(3R-Ph(2-Br))

>  <IUPAC>  (1695) 
(3S)-3-amino-3-(2-bromophenyl)propanoic acid

>  <TYPE>  (1695) 
Backbone

>  <CLASS>  (1695) 
beta

>  <ANALOG>  (1695) 
X

>  <MOL_WT>  (1695) 
244.08799999999997

>  <LOGP>  (1695) 
1.9236

>  <TPSA>  (1695) 
63.32000000000001

>  <POPULARITY>  (1695) 
6.6

>  <PROTECTED>  (1695) 
TRUE

>  <SMILES>  (1695) 
N[C@H](c1(ccccc1Br))CC(=O)O

>  <INCHIKEY>  (1695) 
OETRFEPZCAGEMK-QMMMGPOBSA-N

$$$$
bAla_3RPh_2CF3
     RDKit          2D

 16 16  0  0  0  0  0  0  0  0999 V2000
   -1.0824   -1.4239    0.0000 N   0  0  0  0  0  0  0  0  0  0  0  0
   -0.9716    0.0720    0.0000 C   0  0  0  0  0  0  0  0  0  0  0  0
    0.3793    0.7240    0.0000 C   0  0  0  0  0  0  0  0  0  0  0  0
    0.4901    2.2199    0.0000 C   0  0  0  0  0  0  0  0  0  0  0  0
    1.8410    2.8718    0.0000 C   0  0  0  0  0  0  0  0  0  0  0  0
    3.0811    2.0279    0.0000 C   0  0  0  0  0  0  0  0  0  0  0  0
    2.9703    0.5320    0.0000 C   0  0  0  0  0  0  0  0  0  0  0  0
    1.6194   -0.1200    0.0000 C   0  0  0  0  0  0  0  0  0  0  0  0
    1.5085   -1.6159    0.0000 C   0  0  0  0  0  0  0  0  0  0  0  0
    1.3977   -3.1118    0.0000 F   0  0  0  0  0  0  0  0  0  0  0  0
    3.0044   -1.7267    0.0000 F   0  0  0  0  0  0  0  0  0  0  0  0
    0.0126   -1.5050    0.0000 F   0  0  0  0  0  0  0  0  0  0  0  0
   -2.2117    0.9159    0.0000 C   0  0  0  0  0  0  0  0  0  0  0  0
   -3.5626    0.2639    0.0000 C   0  0  0  0  0  0  0  0  0  0  0  0
   -3.6734   -1.2320    0.0000 O   0  0  0  0  0  0  0  0  0  0  0  0
   -4.8027    1.1079    0.0000 O   0  0  0  0  0  0  0  0  0  0  0  0
  2  1  1  1
  2  3  1  0
  3  4  2  0
  4  5  1  0
  5  6  2  0
  6  7  1  0
  7  8  2  0
  8  9  1  0
  9 10  1  0
  9 11  1  0
  9 12  1  0
  2 13  1  0
 13 14  1  0
 14 15  2  0
 14 16  1  0
  8  3  1  0
M  END
>  <rName>  (1696) 
bAla_3RPh_2CF3

>  <PQ_SYMBOL>  (1696) 
bAla_3RPh_2CF3

>  <FULL_NAME>  (1696) 
(S)-3-amino-3-(2-(trifluoromethyl)phenyl)propanoic acid

>  <IUPAC_CONDENSED>  (1696) 
bAla(3R-Ph(2-CF3))

>  <IUPAC>  (1696) 
(3S)-3-amino-3-(2-(trifluoromethyl)phenyl)propanoic acid

>  <TYPE>  (1696) 
Backbone

>  <CLASS>  (1696) 
beta

>  <ANALOG>  (1696) 
X

>  <MOL_WT>  (1696) 
233.18899999999994

>  <LOGP>  (1696) 
2.1799

>  <TPSA>  (1696) 
63.32000000000001

>  <POPULARITY>  (1696) 
6.7

>  <PROTECTED>  (1696) 
TRUE

>  <SMILES>  (1696) 
N[C@H](c1(ccccc1C(F)(F)F))CC(=O)O

>  <INCHIKEY>  (1696) 
MXKROQQTKYAUJB-QMMMGPOBSA-N

$$$$
bAla_3RPh_3CF3
     RDKit          2D

 16 16  0  0  0  0  0  0  0  0999 V2000
   -1.8339   -1.7993    0.0000 N   0  0  0  0  0  0  0  0  0  0  0  0
   -1.7301   -0.3029    0.0000 C   0  0  0  0  0  0  0  0  0  0  0  0
   -0.3823    0.3554    0.0000 C   0  0  0  0  0  0  0  0  0  0  0  0
   -0.2785    1.8518    0.0000 C   0  0  0  0  0  0  0  0  0  0  0  0
    1.0693    2.5102    0.0000 C   0  0  0  0  0  0  0  0  0  0  0  0
    2.3133    1.6721    0.0000 C   0  0  0  0  0  0  0  0  0  0  0  0
    2.2096    0.1757    0.0000 C   0  0  0  0  0  0  0  0  0  0  0  0
    0.8618   -0.4826    0.0000 C   0  0  0  0  0  0  0  0  0  0  0  0
    3.4536   -0.6624    0.0000 C   0  0  0  0  0  0  0  0  0  0  0  0
    4.6977   -1.5004    0.0000 F   0  0  0  0  0  0  0  0  0  0  0  0
    2.6155   -1.9064    0.0000 F   0  0  0  0  0  0  0  0  0  0  0  0
    4.2917    0.5817    0.0000 F   0  0  0  0  0  0  0  0  0  0  0  0
   -2.9741    0.5352    0.0000 C   0  0  0  0  0  0  0  0  0  0  0  0
   -4.3219   -0.1232    0.0000 C   0  0  0  0  0  0  0  0  0  0  0  0
   -4.4257   -1.6196    0.0000 O   0  0  0  0  0  0  0  0  0  0  0  0
   -5.5660    0.7149    0.0000 O   0  0  0  0  0  0  0  0  0  0  0  0
  2  1  1  1
  2  3  1  0
  3  4  1  0
  4  5  2  0
  5  6  1  0
  6  7  2  0
  7  8  1  0
  7  9  1  0
  9 10  1  0
  9 11  1  0
  9 12  1  0
  2 13  1  0
 13 14  1  0
 14 15  2  0
 14 16  1  0
  8  3  2  0
M  END
>  <rName>  (1697) 
bAla_3RPh_3CF3

>  <PQ_SYMBOL>  (1697) 
bAla_3RPh_3CF3

>  <FULL_NAME>  (1697) 
(S)-3-amino-3-(3-(trifluoromethyl)phenyl)propanoic acid

>  <IUPAC_CONDENSED>  (1697) 
bAla(3R-Ph(3-CF3))

>  <IUPAC>  (1697) 
(3S)-3-amino-3-(3-(trifluoromethyl)phenyl)propanoic acid

>  <TYPE>  (1697) 
Backbone

>  <CLASS>  (1697) 
beta

>  <ANALOG>  (1697) 
X

>  <MOL_WT>  (1697) 
233.18899999999994

>  <LOGP>  (1697) 
2.1799

>  <TPSA>  (1697) 
63.32000000000001

>  <POPULARITY>  (1697) 
8.2

>  <PROTECTED>  (1697) 
TRUE

>  <SMILES>  (1697) 
N[C@H](c1(cccc(c1)C(F)(F)F))CC(=O)O

>  <INCHIKEY>  (1697) 
WZXBASRNQXYUIP-QMMMGPOBSA-N

$$$$
bAla_3RPh_3CN
     RDKit          2D

 14 14  0  0  0  0  0  0  0  0999 V2000
   -1.3964   -1.8531    0.0000 N   0  0  0  0  0  0  0  0  0  0  0  0
   -1.2480   -0.3604    0.0000 C   0  0  0  0  0  0  0  0  0  0  0  0
    0.1188    0.2574    0.0000 C   0  0  0  0  0  0  0  0  0  0  0  0
    0.2672    1.7500    0.0000 C   0  0  0  0  0  0  0  0  0  0  0  0
    1.6341    2.3678    0.0000 C   0  0  0  0  0  0  0  0  0  0  0  0
    2.8526    1.4930    0.0000 C   0  0  0  0  0  0  0  0  0  0  0  0
    2.7042    0.0003    0.0000 C   0  0  0  0  0  0  0  0  0  0  0  0
    3.9226   -0.8745    0.0000 C   0  0  0  0  0  0  0  0  0  0  0  0
    5.1411   -1.7494    0.0000 N   0  0  0  0  0  0  0  0  0  0  0  0
    1.3373   -0.6175    0.0000 C   0  0  0  0  0  0  0  0  0  0  0  0
   -2.4665    0.5144    0.0000 C   0  0  0  0  0  0  0  0  0  0  0  0
   -3.8334   -0.1034    0.0000 C   0  0  0  0  0  0  0  0  0  0  0  0
   -3.9818   -1.5960    0.0000 O   0  0  0  0  0  0  0  0  0  0  0  0
   -5.0518    0.7715    0.0000 O   0  0  0  0  0  0  0  0  0  0  0  0
  2  1  1  1
  2  3  1  0
  3  4  2  0
  4  5  1  0
  5  6  2  0
  6  7  1  0
  7  8  1  0
  8  9  3  0
  7 10  2  0
  2 11  1  0
 11 12  1  0
 12 13  2  0
 12 14  1  0
 10  3  1  0
M  END
>  <rName>  (1698) 
bAla_3RPh_3CN

>  <PQ_SYMBOL>  (1698) 
bAla_3RPh_3CN

>  <FULL_NAME>  (1698) 
(S)-3-amino-3-(3-cyanophenyl)propanoic acid

>  <IUPAC_CONDENSED>  (1698) 
bAla(3R-Ph(3-CN))

>  <IUPAC>  (1698) 
(3S)-3-amino-3-(3-(nitrilomethyl)phenyl)propanoic acid

>  <TYPE>  (1698) 
Backbone

>  <CLASS>  (1698) 
beta

>  <ANALOG>  (1698) 
Lys

>  <MOL_WT>  (1698) 
190.20199999999997

>  <LOGP>  (1698) 
1.03278

>  <TPSA>  (1698) 
87.11

>  <POPULARITY>  (1698) 
5.5

>  <PROTECTED>  (1698) 
TRUE

>  <SMILES>  (1698) 
N[C@H](c1(cccc(C#N)c1))CC(=O)O

>  <INCHIKEY>  (1698) 
RRUDIPCLABXNDE-VIFPVBQESA-N

$$$$
bAla_3RPh_4CN
     RDKit          2D

 14 14  0  0  0  0  0  0  0  0999 V2000
   -2.0793   -1.8631    0.0000 N   0  0  0  0  0  0  0  0  0  0  0  0
   -1.5043   -0.4777    0.0000 C   0  0  0  0  0  0  0  0  0  0  0  0
   -0.0170   -0.2830    0.0000 C   0  0  0  0  0  0  0  0  0  0  0  0
    0.5581    1.1024    0.0000 C   0  0  0  0  0  0  0  0  0  0  0  0
    2.0454    1.2971    0.0000 C   0  0  0  0  0  0  0  0  0  0  0  0
    2.9576    0.1064    0.0000 C   0  0  0  0  0  0  0  0  0  0  0  0
    4.4449    0.3011    0.0000 C   0  0  0  0  0  0  0  0  0  0  0  0
    5.9323    0.4958    0.0000 N   0  0  0  0  0  0  0  0  0  0  0  0
    2.3826   -1.2790    0.0000 C   0  0  0  0  0  0  0  0  0  0  0  0
    0.8953   -1.4737    0.0000 C   0  0  0  0  0  0  0  0  0  0  0  0
   -2.4166    0.7130    0.0000 C   0  0  0  0  0  0  0  0  0  0  0  0
   -3.9039    0.5183    0.0000 C   0  0  0  0  0  0  0  0  0  0  0  0
   -4.4789   -0.8671    0.0000 O   0  0  0  0  0  0  0  0  0  0  0  0
   -4.8162    1.7090    0.0000 O   0  0  0  0  0  0  0  0  0  0  0  0
  2  1  1  1
  2  3  1  0
  3  4  1  0
  4  5  2  0
  5  6  1  0
  6  7  1  0
  7  8  3  0
  6  9  2  0
  9 10  1  0
  2 11  1  0
 11 12  1  0
 12 13  2  0
 12 14  1  0
 10  3  2  0
M  END
>  <rName>  (1699) 
bAla_3RPh_4CN

>  <PQ_SYMBOL>  (1699) 
bAla_3RPh_4CN

>  <FULL_NAME>  (1699) 
(S)-3-amino-3-(4-cyanophenyl)propanoic acid

>  <IUPAC_CONDENSED>  (1699) 
bAla(3R-Ph(4-CN))

>  <IUPAC>  (1699) 
(3S)-3-amino-3-(4-(nitrilomethyl)phenyl)propanoic acid

>  <TYPE>  (1699) 
Backbone

>  <CLASS>  (1699) 
beta

>  <ANALOG>  (1699) 
Lys

>  <MOL_WT>  (1699) 
190.20199999999997

>  <LOGP>  (1699) 
1.03278

>  <TPSA>  (1699) 
87.11

>  <POPULARITY>  (1699) 
7.6

>  <PROTECTED>  (1699) 
TRUE

>  <SMILES>  (1699) 
N[C@H](c1(ccc(C#N)cc1))CC(=O)O

>  <INCHIKEY>  (1699) 
JFPLLJRLBHIJPS-VIFPVBQESA-N

$$$$
bAla_3RPh_2NO2
     RDKit          2D

 15 15  0  0  0  0  0  0  0  0999 V2000
   -1.0552   -1.4821    0.0000 N   0  0  0  0  0  0  0  0  0  0  0  0
   -0.8718    0.0067    0.0000 C   0  0  0  0  0  0  0  0  0  0  0  0
    0.5093    0.5922    0.0000 C   0  0  0  0  0  0  0  0  0  0  0  0
    0.6928    2.0809    0.0000 C   0  0  0  0  0  0  0  0  0  0  0  0
    2.0738    2.6664    0.0000 C   0  0  0  0  0  0  0  0  0  0  0  0
    3.2713    1.7631    0.0000 C   0  0  0  0  0  0  0  0  0  0  0  0
    3.0878    0.2744    0.0000 C   0  0  0  0  0  0  0  0  0  0  0  0
    1.7068   -0.3111    0.0000 C   0  0  0  0  0  0  0  0  0  0  0  0
    1.5233   -1.7999    0.0000 N   0  0  0  0  0  0  0  0  0  0  0  0
    0.1423   -2.3853    0.0000 O   0  0  0  0  0  0  0  0  0  0  0  0
    2.7209   -2.7031    0.0000 O   0  0  0  0  0  0  0  0  0  0  0  0
   -2.0693    0.9100    0.0000 C   0  0  0  0  0  0  0  0  0  0  0  0
   -3.4503    0.3245    0.0000 C   0  0  0  0  0  0  0  0  0  0  0  0
   -3.6338   -1.1643    0.0000 O   0  0  0  0  0  0  0  0  0  0  0  0
   -4.6479    1.2278    0.0000 O   0  0  0  0  0  0  0  0  0  0  0  0
  2  1  1  1
  2  3  1  0
  3  4  2  0
  4  5  1  0
  5  6  2  0
  6  7  1  0
  7  8  2  0
  8  9  1  0
  9 10  2  0
  9 11  1  0
  2 12  1  0
 12 13  1  0
 13 14  2  0
 13 15  1  0
  8  3  1  0
M  CHG  2   9   1  11  -1
M  END
>  <rName>  (1700) 
bAla_3RPh_2NO2

>  <PQ_SYMBOL>  (1700) 
bAla_3RPh_2NO2

>  <FULL_NAME>  (1700) 
(S)-3-amino-3-(2-nitrophenyl)propanoic acid

>  <IUPAC_CONDENSED>  (1700) 
bAla(3R-Ph(2-NO2))

>  <IUPAC>  (1700) 
(3S)-3-amino-3-(2-nitrophenyl)propanoic acid

>  <TYPE>  (1700) 
Backbone

>  <CLASS>  (1700) 
beta

>  <ANALOG>  (1700) 
X

>  <MOL_WT>  (1700) 
210.18899999999996

>  <LOGP>  (1700) 
1.0693000000000001

>  <TPSA>  (1700) 
106.46

>  <POPULARITY>  (1700) 
7.1

>  <PROTECTED>  (1700) 
TRUE

>  <SMILES>  (1700) 
N[C@H](c1(ccccc1[N+](=O)[O-]))CC(=O)O

>  <INCHIKEY>  (1700) 
XXBOYULKNZTOMN-ZETCQYMHSA-N

$$$$
bAla_3SPh_4NO2
     RDKit          2D

 15 15  0  0  0  0  0  0  0  0999 V2000
   -2.3844   -1.8721    0.0000 N   0  0  0  0  0  0  0  0  0  0  0  0
   -1.8029   -0.4894    0.0000 C   0  0  0  0  0  0  0  0  0  0  0  0
   -0.3147   -0.3016    0.0000 C   0  0  0  0  0  0  0  0  0  0  0  0
    0.2667    1.0811    0.0000 C   0  0  0  0  0  0  0  0  0  0  0  0
    1.7549    1.2689    0.0000 C   0  0  0  0  0  0  0  0  0  0  0  0
    2.6617    0.0740    0.0000 C   0  0  0  0  0  0  0  0  0  0  0  0
    2.0802   -1.3087    0.0000 C   0  0  0  0  0  0  0  0  0  0  0  0
    0.5920   -1.4965    0.0000 C   0  0  0  0  0  0  0  0  0  0  0  0
    4.1499    0.2618    0.0000 N   0  0  0  0  0  0  0  0  0  0  0  0
    4.7313    1.6445    0.0000 O   0  0  0  0  0  0  0  0  0  0  0  0
    5.0566   -0.9331    0.0000 O   0  0  0  0  0  0  0  0  0  0  0  0
   -2.7097    0.7055    0.0000 C   0  0  0  0  0  0  0  0  0  0  0  0
   -4.1978    0.5177    0.0000 C   0  0  0  0  0  0  0  0  0  0  0  0
   -4.7793   -0.8650    0.0000 O   0  0  0  0  0  0  0  0  0  0  0  0
   -5.1046    1.7127    0.0000 O   0  0  0  0  0  0  0  0  0  0  0  0
  2  1  1  6
  2  3  1  0
  3  4  1  0
  4  5  2  0
  5  6  1  0
  6  7  2  0
  7  8  1  0
  6  9  1  0
  9 10  2  0
  9 11  1  0
  2 12  1  0
 12 13  1  0
 13 14  2  0
 13 15  1  0
  8  3  2  0
M  CHG  2   9   1  11  -1
M  END
>  <rName>  (1701) 
bAla_3SPh_4NO2

>  <PQ_SYMBOL>  (1701) 
bAla_3SPh_4NO2

>  <FULL_NAME>  (1701) 
(R)-3-amino-3-(4-nitrophenyl)propanoic acid

>  <IUPAC_CONDENSED>  (1701) 
bAla(3S-Ph(4-NO2))

>  <IUPAC>  (1701) 
(3R)-3-amino-3-(4-nitrophenyl)propanoic acid

>  <TYPE>  (1701) 
Backbone

>  <CLASS>  (1701) 
beta

>  <ANALOG>  (1701) 
Lys

>  <MOL_WT>  (1701) 
210.18899999999996

>  <LOGP>  (1701) 
1.0693

>  <TPSA>  (1701) 
106.46

>  <POPULARITY>  (1701) 
7.8

>  <PROTECTED>  (1701) 
TRUE

>  <SMILES>  (1701) 
N[C@@H](c1(ccc(cc1)[N+](=O)[O-]))CC(=O)O

>  <INCHIKEY>  (1701) 
JVQPVKJZKRICRR-MRVPVSSYSA-N

$$$$
bAla_3SPh_2Me
     RDKit          2D

 13 13  0  0  0  0  0  0  0  0999 V2000
   -1.0916   -1.7365    0.0000 N   0  0  0  0  0  0  0  0  0  0  0  0
   -0.6994   -0.2887    0.0000 C   0  0  0  0  0  0  0  0  0  0  0  0
    0.7506    0.0955    0.0000 C   0  0  0  0  0  0  0  0  0  0  0  0
    1.1428    1.5433    0.0000 C   0  0  0  0  0  0  0  0  0  0  0  0
    2.5927    1.9276    0.0000 C   0  0  0  0  0  0  0  0  0  0  0  0
    3.6505    0.8640    0.0000 C   0  0  0  0  0  0  0  0  0  0  0  0
    3.2583   -0.5838    0.0000 C   0  0  0  0  0  0  0  0  0  0  0  0
    1.8083   -0.9680    0.0000 C   0  0  0  0  0  0  0  0  0  0  0  0
    1.4161   -2.4159    0.0000 C   0  0  0  0  0  0  0  0  0  0  0  0
   -1.7571    0.7749    0.0000 C   0  0  0  0  0  0  0  0  0  0  0  0
   -3.2071    0.3906    0.0000 C   0  0  0  0  0  0  0  0  0  0  0  0
   -3.5993   -1.0572    0.0000 O   0  0  0  0  0  0  0  0  0  0  0  0
   -4.2648    1.4542    0.0000 O   0  0  0  0  0  0  0  0  0  0  0  0
  2  1  1  6
  2  3  1  0
  3  4  2  0
  4  5  1  0
  5  6  2  0
  6  7  1  0
  7  8  2  0
  8  9  1  0
  2 10  1  0
 10 11  1  0
 11 12  2  0
 11 13  1  0
  8  3  1  0
M  END
>  <rName>  (1702) 
bAla_3SPh_2Me

>  <PQ_SYMBOL>  (1702) 
bAla_3SPh_2Me

>  <FULL_NAME>  (1702) 
(R)-3-amino-3-(o-tolyl)propanoic acid

>  <IUPAC_CONDENSED>  (1702) 
bAla(3S-Ph(2-Me))

>  <IUPAC>  (1702) 
(3R)-3-amino-3-(2-methylphenyl)propanoic acid

>  <TYPE>  (1702) 
Backbone

>  <CLASS>  (1702) 
beta

>  <ANALOG>  (1702) 
X

>  <MOL_WT>  (1702) 
179.21899999999997

>  <LOGP>  (1702) 
1.4695200000000002

>  <TPSA>  (1702) 
63.32000000000001

>  <POPULARITY>  (1702) 
9.8

>  <PROTECTED>  (1702) 
TRUE

>  <SMILES>  (1702) 
N[C@@H](c1(ccccc1C))CC(=O)O

>  <INCHIKEY>  (1702) 
GORGZFRGYDIRJA-SECBINFHSA-N

$$$$
bAla_3SPh_3Me
     RDKit          2D

 13 13  0  0  0  0  0  0  0  0999 V2000
   -1.2291   -1.8553    0.0000 N   0  0  0  0  0  0  0  0  0  0  0  0
   -0.9051   -0.3907    0.0000 C   0  0  0  0  0  0  0  0  0  0  0  0
    0.5252    0.0611    0.0000 C   0  0  0  0  0  0  0  0  0  0  0  0
    0.8491    1.5257    0.0000 C   0  0  0  0  0  0  0  0  0  0  0  0
    2.2795    1.9775    0.0000 C   0  0  0  0  0  0  0  0  0  0  0  0
    3.3859    0.9646    0.0000 C   0  0  0  0  0  0  0  0  0  0  0  0
    3.0620   -0.5000    0.0000 C   0  0  0  0  0  0  0  0  0  0  0  0
    4.1684   -1.5128    0.0000 C   0  0  0  0  0  0  0  0  0  0  0  0
    1.6316   -0.9517    0.0000 C   0  0  0  0  0  0  0  0  0  0  0  0
   -2.0116    0.6222    0.0000 C   0  0  0  0  0  0  0  0  0  0  0  0
   -3.4419    0.1704    0.0000 C   0  0  0  0  0  0  0  0  0  0  0  0
   -3.7658   -1.2942    0.0000 O   0  0  0  0  0  0  0  0  0  0  0  0
   -4.5483    1.1832    0.0000 O   0  0  0  0  0  0  0  0  0  0  0  0
  2  1  1  6
  2  3  1  0
  3  4  2  0
  4  5  1  0
  5  6  2  0
  6  7  1  0
  7  8  1  0
  7  9  2  0
  2 10  1  0
 10 11  1  0
 11 12  2  0
 11 13  1  0
  9  3  1  0
M  END
>  <rName>  (1703) 
bAla_3SPh_3Me

>  <PQ_SYMBOL>  (1703) 
bAla_3SPh_3Me

>  <FULL_NAME>  (1703) 
(R)-3-amino-3-(m-tolyl)propanoic acid

>  <IUPAC_CONDENSED>  (1703) 
bAla(3S-Ph(3-Me))

>  <IUPAC>  (1703) 
(3R)-3-amino-3-(3-methylphenyl)propanoic acid

>  <TYPE>  (1703) 
Backbone

>  <CLASS>  (1703) 
beta

>  <ANALOG>  (1703) 
X

>  <MOL_WT>  (1703) 
179.21899999999997

>  <LOGP>  (1703) 
1.4695200000000002

>  <TPSA>  (1703) 
63.32000000000001

>  <POPULARITY>  (1703) 
8.1

>  <PROTECTED>  (1703) 
TRUE

>  <SMILES>  (1703) 
N[C@@H](c1(cccc(C)c1))CC(=O)O

>  <INCHIKEY>  (1703) 
HMLYKNGYKKJNLC-SECBINFHSA-N

$$$$
bAla_3SPh_3OMe
     RDKit          2D

 14 14  0  0  0  0  0  0  0  0999 V2000
   -1.2988   -1.8090    0.0000 N   0  0  0  0  0  0  0  0  0  0  0  0
   -1.1504   -0.3163    0.0000 C   0  0  0  0  0  0  0  0  0  0  0  0
    0.2165    0.3015    0.0000 C   0  0  0  0  0  0  0  0  0  0  0  0
    0.3649    1.7941    0.0000 C   0  0  0  0  0  0  0  0  0  0  0  0
    1.7317    2.4119    0.0000 C   0  0  0  0  0  0  0  0  0  0  0  0
    2.9502    1.5371    0.0000 C   0  0  0  0  0  0  0  0  0  0  0  0
    2.8018    0.0445    0.0000 C   0  0  0  0  0  0  0  0  0  0  0  0
    4.0203   -0.8304    0.0000 O   0  0  0  0  0  0  0  0  0  0  0  0
    3.8719   -2.3230    0.0000 C   0  0  0  0  0  0  0  0  0  0  0  0
    1.4349   -0.5733    0.0000 C   0  0  0  0  0  0  0  0  0  0  0  0
   -2.3689    0.5585    0.0000 C   0  0  0  0  0  0  0  0  0  0  0  0
   -3.7357   -0.0593    0.0000 C   0  0  0  0  0  0  0  0  0  0  0  0
   -3.8841   -1.5519    0.0000 O   0  0  0  0  0  0  0  0  0  0  0  0
   -4.9542    0.8155    0.0000 O   0  0  0  0  0  0  0  0  0  0  0  0
  2  1  1  6
  2  3  1  0
  3  4  2  0
  4  5  1  0
  5  6  2  0
  6  7  1  0
  7  8  1  0
  8  9  1  0
  7 10  2  0
  2 11  1  0
 11 12  1  0
 12 13  2  0
 12 14  1  0
 10  3  1  0
M  END
>  <rName>  (1704) 
bAla_3SPh_3OMe

>  <PQ_SYMBOL>  (1704) 
bAla_3SPh_3OMe

>  <FULL_NAME>  (1704) 
(R)-3-amino-3-(3-methoxyphenyl)propanoic acid

>  <IUPAC_CONDENSED>  (1704) 
bAla(3S-Ph(3-OMe))

>  <IUPAC>  (1704) 
(3R)-3-amino-3-(3-methoxyphenyl)propanoic acid

>  <TYPE>  (1704) 
Backbone

>  <CLASS>  (1704) 
beta

>  <ANALOG>  (1704) 
X

>  <MOL_WT>  (1704) 
195.21799999999996

>  <LOGP>  (1704) 
1.1697

>  <TPSA>  (1704) 
72.55

>  <POPULARITY>  (1704) 
8.4

>  <PROTECTED>  (1704) 
TRUE

>  <SMILES>  (1704) 
N[C@@H](c1(cccc(OC)c1))CC(=O)O

>  <INCHIKEY>  (1704) 
FGMPGCPZEOXEES-SECBINFHSA-N

$$$$
bAla_3SPh_3OH
     RDKit          2D

 13 13  0  0  0  0  0  0  0  0999 V2000
   -1.2291   -1.8553    0.0000 N   0  0  0  0  0  0  0  0  0  0  0  0
   -0.9051   -0.3907    0.0000 C   0  0  0  0  0  0  0  0  0  0  0  0
    0.5252    0.0611    0.0000 C   0  0  0  0  0  0  0  0  0  0  0  0
    0.8491    1.5257    0.0000 C   0  0  0  0  0  0  0  0  0  0  0  0
    2.2795    1.9775    0.0000 C   0  0  0  0  0  0  0  0  0  0  0  0
    3.3859    0.9646    0.0000 C   0  0  0  0  0  0  0  0  0  0  0  0
    3.0620   -0.5000    0.0000 C   0  0  0  0  0  0  0  0  0  0  0  0
    4.1684   -1.5128    0.0000 O   0  0  0  0  0  0  0  0  0  0  0  0
    1.6316   -0.9517    0.0000 C   0  0  0  0  0  0  0  0  0  0  0  0
   -2.0116    0.6222    0.0000 C   0  0  0  0  0  0  0  0  0  0  0  0
   -3.4419    0.1704    0.0000 C   0  0  0  0  0  0  0  0  0  0  0  0
   -3.7658   -1.2942    0.0000 O   0  0  0  0  0  0  0  0  0  0  0  0
   -4.5483    1.1832    0.0000 O   0  0  0  0  0  0  0  0  0  0  0  0
  2  1  1  6
  2  3  1  0
  3  4  2  0
  4  5  1  0
  5  6  2  0
  6  7  1  0
  7  8  1  0
  7  9  2  0
  2 10  1  0
 10 11  1  0
 11 12  2  0
 11 13  1  0
  9  3  1  0
M  END
>  <rName>  (1705) 
bAla_3SPh_3OH

>  <PQ_SYMBOL>  (1705) 
bAla_3SPh_3OH

>  <FULL_NAME>  (1705) 
(R)-3-amino-3-(3-hydroxyphenyl)propanoic acid

>  <IUPAC_CONDENSED>  (1705) 
bAla(3S-Ph(3-OH))

>  <IUPAC>  (1705) 
(3R)-3-amino-3-(3-hydroxyphenyl)propanoic acid

>  <TYPE>  (1705) 
Backbone

>  <CLASS>  (1705) 
beta

>  <ANALOG>  (1705) 
X

>  <MOL_WT>  (1705) 
181.19099999999995

>  <LOGP>  (1705) 
0.8667

>  <TPSA>  (1705) 
83.55

>  <POPULARITY>  (1705) 
8.6

>  <PROTECTED>  (1705) 
TRUE

>  <SMILES>  (1705) 
N[C@@H](c1(cccc(O)c1))CC(=O)O

>  <INCHIKEY>  (1705) 
NYHNEKBZZXSUNO-MRVPVSSYSA-N

$$$$
bTyr_S
     RDKit          2D

 13 13  0  0  0  0  0  0  0  0999 V2000
   -1.5598   -1.8792    0.0000 N   0  0  0  0  0  0  0  0  0  0  0  0
   -1.0324   -0.4750    0.0000 C   0  0  0  0  0  0  0  0  0  0  0  0
    0.4474   -0.2297    0.0000 C   0  0  0  0  0  0  0  0  0  0  0  0
    0.9749    1.1745    0.0000 C   0  0  0  0  0  0  0  0  0  0  0  0
    2.4547    1.4199    0.0000 C   0  0  0  0  0  0  0  0  0  0  0  0
    3.4070    0.2610    0.0000 C   0  0  0  0  0  0  0  0  0  0  0  0
    4.8868    0.5063    0.0000 O   0  0  0  0  0  0  0  0  0  0  0  0
    2.8796   -1.1432    0.0000 C   0  0  0  0  0  0  0  0  0  0  0  0
    1.3998   -1.3886    0.0000 C   0  0  0  0  0  0  0  0  0  0  0  0
   -1.9847    0.6838    0.0000 C   0  0  0  0  0  0  0  0  0  0  0  0
   -3.4645    0.4385    0.0000 C   0  0  0  0  0  0  0  0  0  0  0  0
   -3.9920   -0.9657    0.0000 O   0  0  0  0  0  0  0  0  0  0  0  0
   -4.4169    1.5974    0.0000 O   0  0  0  0  0  0  0  0  0  0  0  0
  2  1  1  6
  2  3  1  0
  3  4  1  0
  4  5  2  0
  5  6  1  0
  6  7  1  0
  6  8  2  0
  8  9  1  0
  2 10  1  0
 10 11  1  0
 11 12  2  0
 11 13  1  0
  9  3  2  0
M  END
>  <rName>  (1706) 
bTyr_S

>  <PQ_SYMBOL>  (1706) 
bTyr_S

>  <FULL_NAME>  (1706) 
(R)-3-amino-3-(4-hydroxyphenyl)propanoic acid

>  <IUPAC_CONDENSED>  (1706) 
bTyr(S)

>  <IUPAC>  (1706) 
(3R)-3-amino-3-(4-hydroxyphenyl)propanoic acid

>  <TYPE>  (1706) 
Backbone

>  <CLASS>  (1706) 
beta

>  <ANALOG>  (1706) 
X

>  <MOL_WT>  (1706) 
181.19099999999995

>  <LOGP>  (1706) 
0.8667

>  <TPSA>  (1706) 
83.55

>  <POPULARITY>  (1706) 
10.4

>  <PROTECTED>  (1706) 
TRUE

>  <SMILES>  (1706) 
N[C@@H](c1(ccc(O)cc1))CC(=O)O

>  <INCHIKEY>  (1706) 
JYPHNHPXFNEZBR-MRVPVSSYSA-N

$$$$
bAla_3SPh_24diCl
     RDKit          2D

 14 14  0  0  0  0  0  0  0  0999 V2000
   -1.5776   -1.7216    0.0000 N   0  0  0  0  0  0  0  0  0  0  0  0
   -1.0871   -0.3041    0.0000 C   0  0  0  0  0  0  0  0  0  0  0  0
    0.3858   -0.0201    0.0000 C   0  0  0  0  0  0  0  0  0  0  0  0
    0.8763    1.3974    0.0000 C   0  0  0  0  0  0  0  0  0  0  0  0
    2.3492    1.6814    0.0000 C   0  0  0  0  0  0  0  0  0  0  0  0
    3.3315    0.5478    0.0000 C   0  0  0  0  0  0  0  0  0  0  0  0
    4.8044    0.8318    0.0000 Cl  0  0  0  0  0  0  0  0  0  0  0  0
    2.8410   -0.8697    0.0000 C   0  0  0  0  0  0  0  0  0  0  0  0
    1.3682   -1.1537    0.0000 C   0  0  0  0  0  0  0  0  0  0  0  0
    0.8777   -2.5712    0.0000 Cl  0  0  0  0  0  0  0  0  0  0  0  0
   -2.0695    0.8295    0.0000 C   0  0  0  0  0  0  0  0  0  0  0  0
   -3.5423    0.5455    0.0000 C   0  0  0  0  0  0  0  0  0  0  0  0
   -4.0328   -0.8721    0.0000 O   0  0  0  0  0  0  0  0  0  0  0  0
   -4.5247    1.6790    0.0000 O   0  0  0  0  0  0  0  0  0  0  0  0
  2  1  1  6
  2  3  1  0
  3  4  1  0
  4  5  2  0
  5  6  1  0
  6  7  1  0
  6  8  2  0
  8  9  1  0
  9 10  1  0
  2 11  1  0
 11 12  1  0
 12 13  2  0
 12 14  1  0
  9  3  2  0
M  END
>  <rName>  (1707) 
bAla_3SPh_24diCl

>  <PQ_SYMBOL>  (1707) 
bAla_3SPh_24diCl

>  <FULL_NAME>  (1707) 
(R)-3-amino-3-(2,4-dichlorophenyl)propanoic acid

>  <IUPAC_CONDENSED>  (1707) 
bAla(3S-Ph(2,4-diCl))

>  <IUPAC>  (1707) 
(3R)-3-amino-3-(2,4-dichlorophenyl)propanoic acid

>  <TYPE>  (1707) 
Backbone

>  <CLASS>  (1707) 
beta

>  <ANALOG>  (1707) 
X

>  <MOL_WT>  (1707) 
234.08199999999997

>  <LOGP>  (1707) 
2.4679

>  <TPSA>  (1707) 
63.32000000000001

>  <POPULARITY>  (1707) 
6.6

>  <PROTECTED>  (1707) 
TRUE

>  <SMILES>  (1707) 
N[C@@H](c1(ccc(Cl)cc1Cl))CC(=O)O

>  <INCHIKEY>  (1707) 
QGHQDRDWQIHGKZ-MRVPVSSYSA-N

$$$$
bAla_3SPh_23diCl
     RDKit          2D

 14 14  0  0  0  0  0  0  0  0999 V2000
   -1.2589   -1.7308    0.0000 N   0  0  0  0  0  0  0  0  0  0  0  0
   -0.9897   -0.2551    0.0000 C   0  0  0  0  0  0  0  0  0  0  0  0
    0.4228    0.2496    0.0000 C   0  0  0  0  0  0  0  0  0  0  0  0
    0.6920    1.7253    0.0000 C   0  0  0  0  0  0  0  0  0  0  0  0
    2.1045    2.2300    0.0000 C   0  0  0  0  0  0  0  0  0  0  0  0
    3.2479    1.2591    0.0000 C   0  0  0  0  0  0  0  0  0  0  0  0
    2.9787   -0.2166    0.0000 C   0  0  0  0  0  0  0  0  0  0  0  0
    4.1221   -1.1875    0.0000 Cl  0  0  0  0  0  0  0  0  0  0  0  0
    1.5662   -0.7213    0.0000 C   0  0  0  0  0  0  0  0  0  0  0  0
    1.2970   -2.1970    0.0000 Cl  0  0  0  0  0  0  0  0  0  0  0  0
   -2.1331    0.7158    0.0000 C   0  0  0  0  0  0  0  0  0  0  0  0
   -3.5456    0.2111    0.0000 C   0  0  0  0  0  0  0  0  0  0  0  0
   -3.8148   -1.2646    0.0000 O   0  0  0  0  0  0  0  0  0  0  0  0
   -4.6890    1.1820    0.0000 O   0  0  0  0  0  0  0  0  0  0  0  0
  2  1  1  6
  2  3  1  0
  3  4  2  0
  4  5  1  0
  5  6  2  0
  6  7  1  0
  7  8  1  0
  7  9  2  0
  9 10  1  0
  2 11  1  0
 11 12  1  0
 12 13  2  0
 12 14  1  0
  9  3  1  0
M  END
>  <rName>  (1708) 
bAla_3SPh_23diCl

>  <PQ_SYMBOL>  (1708) 
bAla_3SPh_23diCl

>  <FULL_NAME>  (1708) 
(R)-3-amino-3-(2,3-dichlorophenyl)propanoic acid

>  <IUPAC_CONDENSED>  (1708) 
bAla(3S-Ph(2,3-diCl))

>  <IUPAC>  (1708) 
(3R)-3-amino-3-(2,3-dichlorophenyl)propanoic acid

>  <TYPE>  (1708) 
Backbone

>  <CLASS>  (1708) 
beta

>  <ANALOG>  (1708) 
X

>  <MOL_WT>  (1708) 
234.08199999999997

>  <LOGP>  (1708) 
2.4679

>  <TPSA>  (1708) 
63.32000000000001

>  <POPULARITY>  (1708) 
6.5

>  <PROTECTED>  (1708) 
TRUE

>  <SMILES>  (1708) 
N[C@@H](c1(cccc(Cl)c1Cl))CC(=O)O

>  <INCHIKEY>  (1708) 
GQKLESLYMHWBOP-SSDOTTSWSA-N

$$$$
bAla_3SPh_35diOMe
     RDKit          2D

 16 16  0  0  0  0  0  0  0  0999 V2000
   -2.1417   -1.8682    0.0000 N   0  0  0  0  0  0  0  0  0  0  0  0
   -1.6325   -0.4573    0.0000 C   0  0  0  0  0  0  0  0  0  0  0  0
   -0.1559   -0.1929    0.0000 C   0  0  0  0  0  0  0  0  0  0  0  0
    0.3533    1.2180    0.0000 C   0  0  0  0  0  0  0  0  0  0  0  0
    1.8298    1.4824    0.0000 C   0  0  0  0  0  0  0  0  0  0  0  0
    2.3391    2.8933    0.0000 O   0  0  0  0  0  0  0  0  0  0  0  0
    3.8156    3.1577    0.0000 C   0  0  0  0  0  0  0  0  0  0  0  0
    2.7971    0.3359    0.0000 C   0  0  0  0  0  0  0  0  0  0  0  0
    2.2878   -1.0750    0.0000 C   0  0  0  0  0  0  0  0  0  0  0  0
    3.2550   -2.2215    0.0000 O   0  0  0  0  0  0  0  0  0  0  0  0
    2.7458   -3.6324    0.0000 C   0  0  0  0  0  0  0  0  0  0  0  0
    0.8113   -1.3394    0.0000 C   0  0  0  0  0  0  0  0  0  0  0  0
   -2.5997    0.6892    0.0000 C   0  0  0  0  0  0  0  0  0  0  0  0
   -4.0762    0.4248    0.0000 C   0  0  0  0  0  0  0  0  0  0  0  0
   -4.5855   -0.9861    0.0000 O   0  0  0  0  0  0  0  0  0  0  0  0
   -5.0434    1.5713    0.0000 O   0  0  0  0  0  0  0  0  0  0  0  0
  2  1  1  6
  2  3  1  0
  3  4  2  0
  4  5  1  0
  5  6  1  0
  6  7  1  0
  5  8  2  0
  8  9  1  0
  9 10  1  0
 10 11  1  0
  9 12  2  0
  2 13  1  0
 13 14  1  0
 14 15  2  0
 14 16  1  0
 12  3  1  0
M  END
>  <rName>  (1709) 
bAla_3SPh_35diOMe

>  <PQ_SYMBOL>  (1709) 
bAla_3SPh_35diOMe

>  <FULL_NAME>  (1709) 
(R)-3-amino-3-(3,5-dimethoxyphenyl)propanoic acid

>  <IUPAC_CONDENSED>  (1709) 
bAla(3S-Ph(3,5-diOMe))

>  <IUPAC>  (1709) 
(3R)-3-amino-3-(3,5-dimethoxyphenyl)propanoic acid

>  <TYPE>  (1709) 
Backbone

>  <CLASS>  (1709) 
beta

>  <ANALOG>  (1709) 
X

>  <MOL_WT>  (1709) 
225.24399999999997

>  <LOGP>  (1709) 
1.1783000000000001

>  <TPSA>  (1709) 
81.78

>  <POPULARITY>  (1709) 
6.8

>  <PROTECTED>  (1709) 
TRUE

>  <SMILES>  (1709) 
N[C@@H](c1(cc(OC)cc(OC)c1))CC(=O)O

>  <INCHIKEY>  (1709) 
HUPNLRFWWQFWCS-SNVBAGLBSA-N

$$$$
bAla_3Spyrid3yl
     RDKit          2D

 12 12  0  0  0  0  0  0  0  0999 V2000
   -1.0786   -1.8814    0.0000 N   0  0  0  0  0  0  0  0  0  0  0  0
   -0.6074   -0.4573    0.0000 C   0  0  0  0  0  0  0  0  0  0  0  0
    0.8615   -0.1534    0.0000 C   0  0  0  0  0  0  0  0  0  0  0  0
    1.3327    1.2707    0.0000 C   0  0  0  0  0  0  0  0  0  0  0  0
    2.8016    1.5746    0.0000 C   0  0  0  0  0  0  0  0  0  0  0  0
    3.7992    0.4545    0.0000 C   0  0  0  0  0  0  0  0  0  0  0  0
    3.3280   -0.9696    0.0000 N   0  0  0  0  0  0  0  0  0  0  0  0
    1.8591   -1.2735    0.0000 C   0  0  0  0  0  0  0  0  0  0  0  0
   -1.6051    0.6628    0.0000 C   0  0  0  0  0  0  0  0  0  0  0  0
   -3.0740    0.3588    0.0000 C   0  0  0  0  0  0  0  0  0  0  0  0
   -3.5452   -1.0652    0.0000 O   0  0  0  0  0  0  0  0  0  0  0  0
   -4.0716    1.4790    0.0000 O   0  0  0  0  0  0  0  0  0  0  0  0
  2  1  1  6
  2  3  1  0
  3  4  2  0
  4  5  1  0
  5  6  2  0
  6  7  1  0
  7  8  2  0
  2  9  1  0
  9 10  1  0
 10 11  2  0
 10 12  1  0
  8  3  1  0
M  END
>  <rName>  (1710) 
bAla_3Spyrid3yl

>  <PQ_SYMBOL>  (1710) 
bAla_3Spyrid3yl

>  <FULL_NAME>  (1710) 
(R)-3-amino-3-(pyridin-3-yl)propanoic acid

>  <IUPAC_CONDENSED>  (1710) 
bAla(3S-pyrid-3-yl)

>  <IUPAC>  (1710) 
(3R)-3-amino-3-(pyridin-3-yl)propanoic acid

>  <TYPE>  (1710) 
Backbone

>  <CLASS>  (1710) 
beta

>  <ANALOG>  (1710) 
X

>  <MOL_WT>  (1710) 
166.17999999999998

>  <LOGP>  (1710) 
0.5561

>  <TPSA>  (1710) 
76.21

>  <POPULARITY>  (1710) 
7.4

>  <PROTECTED>  (1710) 
TRUE

>  <SMILES>  (1710) 
N[C@@H](c1(cccnc1))CC(=O)O

>  <INCHIKEY>  (1710) 
QOTCEJINJFHMLO-SSDOTTSWSA-N

$$$$
bAla_3Sthien2yl
     RDKit          2D

 11 11  0  0  0  0  0  0  0  0999 V2000
   -0.7304   -1.8619    0.0000 N   0  0  0  0  0  0  0  0  0  0  0  0
   -0.2874   -0.4288    0.0000 C   0  0  0  0  0  0  0  0  0  0  0  0
    1.1751   -0.0958    0.0000 C   0  0  0  0  0  0  0  0  0  0  0  0
    2.3042   -1.0834    0.0000 C   0  0  0  0  0  0  0  0  0  0  0  0
    3.5923   -0.3148    0.0000 C   0  0  0  0  0  0  0  0  0  0  0  0
    3.2594    1.1478    0.0000 C   0  0  0  0  0  0  0  0  0  0  0  0
    1.7655    1.2831    0.0000 S   0  0  0  0  0  0  0  0  0  0  0  0
   -1.3071    0.6714    0.0000 C   0  0  0  0  0  0  0  0  0  0  0  0
   -2.7697    0.3385    0.0000 C   0  0  0  0  0  0  0  0  0  0  0  0
   -3.2126   -1.0946    0.0000 O   0  0  0  0  0  0  0  0  0  0  0  0
   -3.7893    1.4386    0.0000 O   0  0  0  0  0  0  0  0  0  0  0  0
  2  1  1  6
  2  3  1  0
  3  4  2  0
  4  5  1  0
  5  6  2  0
  6  7  1  0
  2  8  1  0
  8  9  1  0
  9 10  2  0
  9 11  1  0
  7  3  1  0
M  END
>  <rName>  (1711) 
bAla_3Sthien2yl

>  <PQ_SYMBOL>  (1711) 
bAla_3Sthien2yl

>  <FULL_NAME>  (1711) 
(R)-3-amino-3-(thiophen-2-yl)propanoic acid

>  <IUPAC_CONDENSED>  (1711) 
bAla(3S-thien-2-yl)

>  <IUPAC>  (1711) 
(3R)-3-amino-3-(thiophen-2-yl)propanoic acid

>  <TYPE>  (1711) 
Backbone

>  <CLASS>  (1711) 
beta

>  <ANALOG>  (1711) 
X

>  <MOL_WT>  (1711) 
171.221

>  <LOGP>  (1711) 
1.2226000000000001

>  <TPSA>  (1711) 
63.32000000000001

>  <POPULARITY>  (1711) 
9.5

>  <PROTECTED>  (1711) 
TRUE

>  <SMILES>  (1711) 
N[C@@H](c1(cccs1))CC(=O)O

>  <INCHIKEY>  (1711) 
GYAYLYLPTPXESE-RXMQYKEDSA-N

$$$$
bAla_3SPh_2F
     RDKit          2D

 13 13  0  0  0  0  0  0  0  0999 V2000
   -1.0916   -1.7365    0.0000 N   0  0  0  0  0  0  0  0  0  0  0  0
   -0.6994   -0.2887    0.0000 C   0  0  0  0  0  0  0  0  0  0  0  0
    0.7506    0.0955    0.0000 C   0  0  0  0  0  0  0  0  0  0  0  0
    1.1428    1.5433    0.0000 C   0  0  0  0  0  0  0  0  0  0  0  0
    2.5927    1.9276    0.0000 C   0  0  0  0  0  0  0  0  0  0  0  0
    3.6505    0.8640    0.0000 C   0  0  0  0  0  0  0  0  0  0  0  0
    3.2583   -0.5838    0.0000 C   0  0  0  0  0  0  0  0  0  0  0  0
    1.8083   -0.9680    0.0000 C   0  0  0  0  0  0  0  0  0  0  0  0
    1.4161   -2.4159    0.0000 F   0  0  0  0  0  0  0  0  0  0  0  0
   -1.7571    0.7749    0.0000 C   0  0  0  0  0  0  0  0  0  0  0  0
   -3.2071    0.3906    0.0000 C   0  0  0  0  0  0  0  0  0  0  0  0
   -3.5993   -1.0572    0.0000 O   0  0  0  0  0  0  0  0  0  0  0  0
   -4.2648    1.4542    0.0000 O   0  0  0  0  0  0  0  0  0  0  0  0
  2  1  1  6
  2  3  1  0
  3  4  2  0
  4  5  1  0
  5  6  2  0
  6  7  1  0
  7  8  2  0
  8  9  1  0
  2 10  1  0
 10 11  1  0
 11 12  2  0
 11 13  1  0
  8  3  1  0
M  END
>  <rName>  (1712) 
bAla_3SPh_2F

>  <PQ_SYMBOL>  (1712) 
bAla_3SPh_2F

>  <FULL_NAME>  (1712) 
(R)-3-amino-3-(2-fluorophenyl)propanoic acid

>  <IUPAC_CONDENSED>  (1712) 
bAla(3S-Ph(2-F))

>  <IUPAC>  (1712) 
(3R)-3-amino-3-(2-fluorophenyl)propanoic acid

>  <TYPE>  (1712) 
Backbone

>  <CLASS>  (1712) 
beta

>  <ANALOG>  (1712) 
X

>  <MOL_WT>  (1712) 
183.18199999999996

>  <LOGP>  (1712) 
1.3002000000000002

>  <TPSA>  (1712) 
63.32000000000001

>  <POPULARITY>  (1712) 
8.4

>  <PROTECTED>  (1712) 
TRUE

>  <SMILES>  (1712) 
N[C@@H](c1(ccccc1F))CC(=O)O

>  <INCHIKEY>  (1712) 
RSCLTSJQAQBNCE-MRVPVSSYSA-N

$$$$
bAla_3SPh_2Cl
     RDKit          2D

 13 13  0  0  0  0  0  0  0  0999 V2000
   -1.0916   -1.7365    0.0000 N   0  0  0  0  0  0  0  0  0  0  0  0
   -0.6994   -0.2887    0.0000 C   0  0  0  0  0  0  0  0  0  0  0  0
    0.7506    0.0955    0.0000 C   0  0  0  0  0  0  0  0  0  0  0  0
    1.1428    1.5433    0.0000 C   0  0  0  0  0  0  0  0  0  0  0  0
    2.5927    1.9276    0.0000 C   0  0  0  0  0  0  0  0  0  0  0  0
    3.6505    0.8640    0.0000 C   0  0  0  0  0  0  0  0  0  0  0  0
    3.2583   -0.5838    0.0000 C   0  0  0  0  0  0  0  0  0  0  0  0
    1.8083   -0.9680    0.0000 C   0  0  0  0  0  0  0  0  0  0  0  0
    1.4161   -2.4159    0.0000 Cl  0  0  0  0  0  0  0  0  0  0  0  0
   -1.7571    0.7749    0.0000 C   0  0  0  0  0  0  0  0  0  0  0  0
   -3.2071    0.3906    0.0000 C   0  0  0  0  0  0  0  0  0  0  0  0
   -3.5993   -1.0572    0.0000 O   0  0  0  0  0  0  0  0  0  0  0  0
   -4.2648    1.4542    0.0000 O   0  0  0  0  0  0  0  0  0  0  0  0
  2  1  1  6
  2  3  1  0
  3  4  2  0
  4  5  1  0
  5  6  2  0
  6  7  1  0
  7  8  2  0
  8  9  1  0
  2 10  1  0
 10 11  1  0
 11 12  2  0
 11 13  1  0
  8  3  1  0
M  END
>  <rName>  (1713) 
bAla_3SPh_2Cl

>  <PQ_SYMBOL>  (1713) 
bAla_3SPh_2Cl

>  <FULL_NAME>  (1713) 
(R)-3-amino-3-(2-chlorophenyl)propanoic acid

>  <IUPAC_CONDENSED>  (1713) 
bAla(3S-Ph(2-Cl))

>  <IUPAC>  (1713) 
(3R)-3-amino-3-(2-chlorophenyl)propanoic acid

>  <TYPE>  (1713) 
Backbone

>  <CLASS>  (1713) 
beta

>  <ANALOG>  (1713) 
X

>  <MOL_WT>  (1713) 
199.63699999999994

>  <LOGP>  (1713) 
1.8145000000000002

>  <TPSA>  (1713) 
63.32000000000001

>  <POPULARITY>  (1713) 
8.4

>  <PROTECTED>  (1713) 
TRUE

>  <SMILES>  (1713) 
N[C@@H](c1(ccccc1Cl))CC(=O)O

>  <INCHIKEY>  (1713) 
NXXFYRJVRISCCP-MRVPVSSYSA-N

$$$$
bAla_3SPh_3Cl
     RDKit          2D

 13 13  0  0  0  0  0  0  0  0999 V2000
   -1.2291   -1.8553    0.0000 N   0  0  0  0  0  0  0  0  0  0  0  0
   -0.9051   -0.3907    0.0000 C   0  0  0  0  0  0  0  0  0  0  0  0
    0.5252    0.0611    0.0000 C   0  0  0  0  0  0  0  0  0  0  0  0
    0.8491    1.5257    0.0000 C   0  0  0  0  0  0  0  0  0  0  0  0
    2.2795    1.9775    0.0000 C   0  0  0  0  0  0  0  0  0  0  0  0
    3.3859    0.9646    0.0000 C   0  0  0  0  0  0  0  0  0  0  0  0
    3.0620   -0.5000    0.0000 C   0  0  0  0  0  0  0  0  0  0  0  0
    4.1684   -1.5128    0.0000 Cl  0  0  0  0  0  0  0  0  0  0  0  0
    1.6316   -0.9517    0.0000 C   0  0  0  0  0  0  0  0  0  0  0  0
   -2.0116    0.6222    0.0000 C   0  0  0  0  0  0  0  0  0  0  0  0
   -3.4419    0.1704    0.0000 C   0  0  0  0  0  0  0  0  0  0  0  0
   -3.7658   -1.2942    0.0000 O   0  0  0  0  0  0  0  0  0  0  0  0
   -4.5483    1.1832    0.0000 O   0  0  0  0  0  0  0  0  0  0  0  0
  2  1  1  6
  2  3  1  0
  3  4  2  0
  4  5  1  0
  5  6  2  0
  6  7  1  0
  7  8  1  0
  7  9  2  0
  2 10  1  0
 10 11  1  0
 11 12  2  0
 11 13  1  0
  9  3  1  0
M  END
>  <rName>  (1714) 
bAla_3SPh_3Cl

>  <PQ_SYMBOL>  (1714) 
bAla_3SPh_3Cl

>  <FULL_NAME>  (1714) 
(R)-3-amino-3-(3-chlorophenyl)propanoic acid

>  <IUPAC_CONDENSED>  (1714) 
bAla(3S-Ph(3-Cl))

>  <IUPAC>  (1714) 
(3R)-3-amino-3-(3-chlorophenyl)propanoic acid

>  <TYPE>  (1714) 
Backbone

>  <CLASS>  (1714) 
beta

>  <ANALOG>  (1714) 
X

>  <MOL_WT>  (1714) 
199.63699999999997

>  <LOGP>  (1714) 
1.8145000000000002

>  <TPSA>  (1714) 
63.32000000000001

>  <POPULARITY>  (1714) 
9.3

>  <PROTECTED>  (1714) 
TRUE

>  <SMILES>  (1714) 
N[C@@H](c1(cccc(Cl)c1))CC(=O)O

>  <INCHIKEY>  (1714) 
LIDRHPCWOYOBIZ-MRVPVSSYSA-N

$$$$
bAla_3SPh_2Br
     RDKit          2D

 13 13  0  0  0  0  0  0  0  0999 V2000
   -1.0916   -1.7365    0.0000 N   0  0  0  0  0  0  0  0  0  0  0  0
   -0.6994   -0.2887    0.0000 C   0  0  0  0  0  0  0  0  0  0  0  0
    0.7506    0.0955    0.0000 C   0  0  0  0  0  0  0  0  0  0  0  0
    1.1428    1.5433    0.0000 C   0  0  0  0  0  0  0  0  0  0  0  0
    2.5927    1.9276    0.0000 C   0  0  0  0  0  0  0  0  0  0  0  0
    3.6505    0.8640    0.0000 C   0  0  0  0  0  0  0  0  0  0  0  0
    3.2583   -0.5838    0.0000 C   0  0  0  0  0  0  0  0  0  0  0  0
    1.8083   -0.9680    0.0000 C   0  0  0  0  0  0  0  0  0  0  0  0
    1.4161   -2.4159    0.0000 Br  0  0  0  0  0  0  0  0  0  0  0  0
   -1.7571    0.7749    0.0000 C   0  0  0  0  0  0  0  0  0  0  0  0
   -3.2071    0.3906    0.0000 C   0  0  0  0  0  0  0  0  0  0  0  0
   -3.5993   -1.0572    0.0000 O   0  0  0  0  0  0  0  0  0  0  0  0
   -4.2648    1.4542    0.0000 O   0  0  0  0  0  0  0  0  0  0  0  0
  2  1  1  6
  2  3  1  0
  3  4  2  0
  4  5  1  0
  5  6  2  0
  6  7  1  0
  7  8  2  0
  8  9  1  0
  2 10  1  0
 10 11  1  0
 11 12  2  0
 11 13  1  0
  8  3  1  0
M  END
>  <rName>  (1715) 
bAla_3SPh_2Br

>  <PQ_SYMBOL>  (1715) 
bAla_3SPh_2Br

>  <FULL_NAME>  (1715) 
(R)-3-amino-3-(2-bromophenyl)propanoic acid

>  <IUPAC_CONDENSED>  (1715) 
bAla(3S-Ph(2-Br))

>  <IUPAC>  (1715) 
(3R)-3-amino-3-(2-bromophenyl)propanoic acid

>  <TYPE>  (1715) 
Backbone

>  <CLASS>  (1715) 
beta

>  <ANALOG>  (1715) 
X

>  <MOL_WT>  (1715) 
244.08799999999997

>  <LOGP>  (1715) 
1.9236

>  <TPSA>  (1715) 
63.32000000000001

>  <POPULARITY>  (1715) 
6.8

>  <PROTECTED>  (1715) 
TRUE

>  <SMILES>  (1715) 
N[C@@H](c1(ccccc1Br))CC(=O)O

>  <INCHIKEY>  (1715) 
OETRFEPZCAGEMK-MRVPVSSYSA-N

$$$$
bAla_3SPh_3Br
     RDKit          2D

 13 13  0  0  0  0  0  0  0  0999 V2000
   -1.2291   -1.8553    0.0000 N   0  0  0  0  0  0  0  0  0  0  0  0
   -0.9051   -0.3907    0.0000 C   0  0  0  0  0  0  0  0  0  0  0  0
    0.5252    0.0611    0.0000 C   0  0  0  0  0  0  0  0  0  0  0  0
    0.8491    1.5257    0.0000 C   0  0  0  0  0  0  0  0  0  0  0  0
    2.2795    1.9775    0.0000 C   0  0  0  0  0  0  0  0  0  0  0  0
    3.3859    0.9646    0.0000 C   0  0  0  0  0  0  0  0  0  0  0  0
    3.0620   -0.5000    0.0000 C   0  0  0  0  0  0  0  0  0  0  0  0
    4.1684   -1.5128    0.0000 Br  0  0  0  0  0  0  0  0  0  0  0  0
    1.6316   -0.9517    0.0000 C   0  0  0  0  0  0  0  0  0  0  0  0
   -2.0116    0.6222    0.0000 C   0  0  0  0  0  0  0  0  0  0  0  0
   -3.4419    0.1704    0.0000 C   0  0  0  0  0  0  0  0  0  0  0  0
   -3.7658   -1.2942    0.0000 O   0  0  0  0  0  0  0  0  0  0  0  0
   -4.5483    1.1832    0.0000 O   0  0  0  0  0  0  0  0  0  0  0  0
  2  1  1  6
  2  3  1  0
  3  4  2  0
  4  5  1  0
  5  6  2  0
  6  7  1  0
  7  8  1  0
  7  9  2  0
  2 10  1  0
 10 11  1  0
 11 12  2  0
 11 13  1  0
  9  3  1  0
M  END
>  <rName>  (1716) 
bAla_3SPh_3Br

>  <PQ_SYMBOL>  (1716) 
bAla_3SPh_3Br

>  <FULL_NAME>  (1716) 
(R)-3-amino-3-(3-bromophenyl)propanoic acid

>  <IUPAC_CONDENSED>  (1716) 
bAla(3S-Ph(3-Br))

>  <IUPAC>  (1716) 
(3R)-3-amino-3-(3-bromophenyl)propanoic acid

>  <TYPE>  (1716) 
Backbone

>  <CLASS>  (1716) 
beta

>  <ANALOG>  (1716) 
X

>  <MOL_WT>  (1716) 
244.08799999999997

>  <LOGP>  (1716) 
1.9236000000000002

>  <TPSA>  (1716) 
63.32000000000001

>  <POPULARITY>  (1716) 
8.8

>  <PROTECTED>  (1716) 
TRUE

>  <SMILES>  (1716) 
N[C@@H](c1(cccc(Br)c1))CC(=O)O

>  <INCHIKEY>  (1716) 
RLYAXKJHJUXZOT-MRVPVSSYSA-N

$$$$
bAla_3SPh_2CF3
     RDKit          2D

 16 16  0  0  0  0  0  0  0  0999 V2000
   -1.0824   -1.4239    0.0000 N   0  0  0  0  0  0  0  0  0  0  0  0
   -0.9716    0.0720    0.0000 C   0  0  0  0  0  0  0  0  0  0  0  0
    0.3793    0.7240    0.0000 C   0  0  0  0  0  0  0  0  0  0  0  0
    0.4901    2.2199    0.0000 C   0  0  0  0  0  0  0  0  0  0  0  0
    1.8410    2.8718    0.0000 C   0  0  0  0  0  0  0  0  0  0  0  0
    3.0811    2.0279    0.0000 C   0  0  0  0  0  0  0  0  0  0  0  0
    2.9703    0.5320    0.0000 C   0  0  0  0  0  0  0  0  0  0  0  0
    1.6194   -0.1200    0.0000 C   0  0  0  0  0  0  0  0  0  0  0  0
    1.5085   -1.6159    0.0000 C   0  0  0  0  0  0  0  0  0  0  0  0
    1.3977   -3.1118    0.0000 F   0  0  0  0  0  0  0  0  0  0  0  0
    3.0044   -1.7267    0.0000 F   0  0  0  0  0  0  0  0  0  0  0  0
    0.0126   -1.5050    0.0000 F   0  0  0  0  0  0  0  0  0  0  0  0
   -2.2117    0.9159    0.0000 C   0  0  0  0  0  0  0  0  0  0  0  0
   -3.5626    0.2639    0.0000 C   0  0  0  0  0  0  0  0  0  0  0  0
   -3.6734   -1.2320    0.0000 O   0  0  0  0  0  0  0  0  0  0  0  0
   -4.8027    1.1079    0.0000 O   0  0  0  0  0  0  0  0  0  0  0  0
  2  1  1  6
  2  3  1  0
  3  4  2  0
  4  5  1  0
  5  6  2  0
  6  7  1  0
  7  8  2  0
  8  9  1  0
  9 10  1  0
  9 11  1  0
  9 12  1  0
  2 13  1  0
 13 14  1  0
 14 15  2  0
 14 16  1  0
  8  3  1  0
M  END
>  <rName>  (1717) 
bAla_3SPh_2CF3

>  <PQ_SYMBOL>  (1717) 
bAla_3SPh_2CF3

>  <FULL_NAME>  (1717) 
(R)-3-amino-3-(2-(trifluoromethyl)phenyl)propanoic acid

>  <IUPAC_CONDENSED>  (1717) 
bAla(3S-Ph(2-CF3))

>  <IUPAC>  (1717) 
(3R)-3-amino-3-(2-(trifluoromethyl)phenyl)propanoic acid

>  <TYPE>  (1717) 
Backbone

>  <CLASS>  (1717) 
beta

>  <ANALOG>  (1717) 
X

>  <MOL_WT>  (1717) 
233.18899999999994

>  <LOGP>  (1717) 
2.1799

>  <TPSA>  (1717) 
63.32000000000001

>  <POPULARITY>  (1717) 
6.1

>  <PROTECTED>  (1717) 
TRUE

>  <SMILES>  (1717) 
N[C@@H](c1(ccccc1C(F)(F)F))CC(=O)O

>  <INCHIKEY>  (1717) 
MXKROQQTKYAUJB-MRVPVSSYSA-N

$$$$
bAla_3SPh_4CF3
     RDKit          2D

 16 16  0  0  0  0  0  0  0  0999 V2000
   -2.6557   -1.8716    0.0000 N   0  0  0  0  0  0  0  0  0  0  0  0
   -2.0655   -0.4926    0.0000 C   0  0  0  0  0  0  0  0  0  0  0  0
   -0.5761   -0.3143    0.0000 C   0  0  0  0  0  0  0  0  0  0  0  0
    0.0141    1.0647    0.0000 C   0  0  0  0  0  0  0  0  0  0  0  0
    1.5035    1.2430    0.0000 C   0  0  0  0  0  0  0  0  0  0  0  0
    2.4026    0.0424    0.0000 C   0  0  0  0  0  0  0  0  0  0  0  0
    1.8124   -1.3366    0.0000 C   0  0  0  0  0  0  0  0  0  0  0  0
    0.3230   -1.5149    0.0000 C   0  0  0  0  0  0  0  0  0  0  0  0
    3.8920    0.2207    0.0000 C   0  0  0  0  0  0  0  0  0  0  0  0
    5.3813    0.3991    0.0000 F   0  0  0  0  0  0  0  0  0  0  0  0
    4.0703   -1.2686    0.0000 F   0  0  0  0  0  0  0  0  0  0  0  0
    3.7136    1.7101    0.0000 F   0  0  0  0  0  0  0  0  0  0  0  0
   -2.9646    0.7080    0.0000 C   0  0  0  0  0  0  0  0  0  0  0  0
   -4.4539    0.5297    0.0000 C   0  0  0  0  0  0  0  0  0  0  0  0
   -5.0442   -0.8493    0.0000 O   0  0  0  0  0  0  0  0  0  0  0  0
   -5.3531    1.7303    0.0000 O   0  0  0  0  0  0  0  0  0  0  0  0
  2  1  1  6
  2  3  1  0
  3  4  1  0
  4  5  2  0
  5  6  1  0
  6  7  2  0
  7  8  1  0
  6  9  1  0
  9 10  1  0
  9 11  1  0
  9 12  1  0
  2 13  1  0
 13 14  1  0
 14 15  2  0
 14 16  1  0
  8  3  2  0
M  END
>  <rName>  (1718) 
bAla_3SPh_4CF3

>  <PQ_SYMBOL>  (1718) 
bAla_3SPh_4CF3

>  <FULL_NAME>  (1718) 
(R)-3-amino-3-(4-(trifluoromethyl)phenyl)propanoic acid

>  <IUPAC_CONDENSED>  (1718) 
bAla(3S-Ph(4-CF3))

>  <IUPAC>  (1718) 
(3R)-3-amino-3-(4-(trifluoromethyl)phenyl)propanoic acid

>  <TYPE>  (1718) 
Backbone

>  <CLASS>  (1718) 
beta

>  <ANALOG>  (1718) 
X

>  <MOL_WT>  (1718) 
233.18899999999994

>  <LOGP>  (1718) 
2.1799

>  <TPSA>  (1718) 
63.32000000000001

>  <POPULARITY>  (1718) 
7.3

>  <PROTECTED>  (1718) 
TRUE

>  <SMILES>  (1718) 
N[C@@H](c1(ccc(cc1)C(F)(F)F))CC(=O)O

>  <INCHIKEY>  (1718) 
ABDRZHVLIRZFQO-MRVPVSSYSA-N

$$$$
bAla_3SPh_2NO2
     RDKit          2D

 15 15  0  0  0  0  0  0  0  0999 V2000
   -1.0552   -1.4821    0.0000 N   0  0  0  0  0  0  0  0  0  0  0  0
   -0.8718    0.0067    0.0000 C   0  0  0  0  0  0  0  0  0  0  0  0
    0.5093    0.5922    0.0000 C   0  0  0  0  0  0  0  0  0  0  0  0
    0.6928    2.0809    0.0000 C   0  0  0  0  0  0  0  0  0  0  0  0
    2.0738    2.6664    0.0000 C   0  0  0  0  0  0  0  0  0  0  0  0
    3.2713    1.7631    0.0000 C   0  0  0  0  0  0  0  0  0  0  0  0
    3.0878    0.2744    0.0000 C   0  0  0  0  0  0  0  0  0  0  0  0
    1.7068   -0.3111    0.0000 C   0  0  0  0  0  0  0  0  0  0  0  0
    1.5233   -1.7999    0.0000 N   0  0  0  0  0  0  0  0  0  0  0  0
    0.1423   -2.3853    0.0000 O   0  0  0  0  0  0  0  0  0  0  0  0
    2.7209   -2.7031    0.0000 O   0  0  0  0  0  0  0  0  0  0  0  0
   -2.0693    0.9100    0.0000 C   0  0  0  0  0  0  0  0  0  0  0  0
   -3.4503    0.3245    0.0000 C   0  0  0  0  0  0  0  0  0  0  0  0
   -3.6338   -1.1643    0.0000 O   0  0  0  0  0  0  0  0  0  0  0  0
   -4.6479    1.2278    0.0000 O   0  0  0  0  0  0  0  0  0  0  0  0
  2  1  1  6
  2  3  1  0
  3  4  2  0
  4  5  1  0
  5  6  2  0
  6  7  1  0
  7  8  2  0
  8  9  1  0
  9 10  2  0
  9 11  1  0
  2 12  1  0
 12 13  1  0
 13 14  2  0
 13 15  1  0
  8  3  1  0
M  CHG  2   9   1  11  -1
M  END
>  <rName>  (1719) 
bAla_3SPh_2NO2

>  <PQ_SYMBOL>  (1719) 
bAla_3SPh_2NO2

>  <FULL_NAME>  (1719) 
(R)-3-amino-3-(2-nitrophenyl)propanoic acid

>  <IUPAC_CONDENSED>  (1719) 
bAla(3S-Ph(2-NO2))

>  <IUPAC>  (1719) 
(3R)-3-amino-3-(2-nitrophenyl)propanoic acid

>  <TYPE>  (1719) 
Backbone

>  <CLASS>  (1719) 
beta

>  <ANALOG>  (1719) 
X

>  <MOL_WT>  (1719) 
210.18899999999996

>  <LOGP>  (1719) 
1.0693000000000001

>  <TPSA>  (1719) 
106.46

>  <POPULARITY>  (1719) 
5.9

>  <PROTECTED>  (1719) 
TRUE

>  <SMILES>  (1719) 
N[C@@H](c1(ccccc1[N+](=O)[O-]))CC(=O)O

>  <INCHIKEY>  (1719) 
XXBOYULKNZTOMN-SSDOTTSWSA-N

$$$$
Lys_N6Cys
     RDKit          2D

 16 15  0  0  0  0  0  0  0  0999 V2000
    2.1144   -0.3552    0.0000 N   0  0  0  0  0  0  0  0  0  0  0  0
    3.4063    0.4070    0.0000 C   0  0  0  0  0  0  0  0  0  0  0  0
    3.3922    1.9069    0.0000 O   0  0  0  0  0  0  0  0  0  0  0  0
    4.7123   -0.3308    0.0000 C   0  0  0  0  0  0  0  0  0  0  0  0
    4.7264   -1.8307    0.0000 N   0  0  0  0  0  0  0  0  0  0  0  0
    6.0043    0.4314    0.0000 C   0  0  0  0  0  0  0  0  0  0  0  0
    7.3103   -0.3064    0.0000 S   0  0  0  0  0  0  0  0  0  0  0  0
    0.8083    0.3826    0.0000 C   0  0  0  0  0  0  0  0  0  0  0  0
   -0.4836   -0.3796    0.0000 C   0  0  0  0  0  0  0  0  0  0  0  0
   -1.7896    0.3582    0.0000 C   0  0  0  0  0  0  0  0  0  0  0  0
   -3.0816   -0.4040    0.0000 C   0  0  0  0  0  0  0  0  0  0  0  0
   -4.3876    0.3338    0.0000 C   0  0  0  0  0  0  0  0  0  0  0  0
   -4.4017    1.8337    0.0000 N   0  0  0  0  0  0  0  0  0  0  0  0
   -5.6795   -0.4284    0.0000 C   0  0  0  0  0  0  0  0  0  0  0  0
   -5.6654   -1.9283    0.0000 O   0  0  0  0  0  0  0  0  0  0  0  0
   -6.9855    0.3094    0.0000 O   0  0  0  0  0  0  0  0  0  0  0  0
  1  2  1  0
  2  3  2  0
  2  4  1  0
  4  5  1  6
  4  6  1  0
  6  7  1  0
  1  8  1  0
  8  9  1  0
  9 10  1  0
 10 11  1  0
 11 12  1  0
 12 13  1  1
 12 14  1  0
 14 15  2  0
 14 16  1  0
M  END
>  <rName>  (1720) 
Lys_N6Cys

>  <PQ_SYMBOL>  (1720) 
Lys_N6Cys

>  <FULL_NAME>  (1720) 
N6-(L-cysteinyl)-L-lysine

>  <IUPAC_CONDENSED>  (1720) 
Lys(N6-Cys)

>  <IUPAC>  (1720) 
(2S)-2-amino-6-((1R)-1-amino-2-sulfanylethylcarbonylamino)hexanoic acid

>  <TYPE>  (1720) 
Backbone

>  <CLASS>  (1720) 
alpha

>  <ANALOG>  (1720) 
Lys

>  <MOL_WT>  (1720) 
249.33599999999996

>  <LOGP>  (1720) 
-1.0580999999999992

>  <TPSA>  (1720) 
118.44000000000001

>  <POPULARITY>  (1720) 
4.9

>  <PROTECTED>  (1720) 
TRUE

>  <SMILES>  (1720) 
N(C(=O)[C@@H](N)CS)CCCC[C@H](N)C(=O)O

>  <INCHIKEY>  (1720) 
ZPLTXTROMWYDIX-BQBZGAKWSA-N

$$$$
Asp_OFm
     RDKit          2D

 23 25  0  0  0  0  0  0  0  0999 V2000
   -5.2654   -1.9562    0.0000 N   0  0  0  0  0  0  0  0  0  0  0  0
   -5.1044   -0.4649    0.0000 C   0  0  0  0  0  0  0  0  0  0  0  0
   -3.7324    0.1414    0.0000 C   0  0  0  0  0  0  0  0  0  0  0  0
   -2.5214   -0.7437    0.0000 C   0  0  0  0  0  0  0  0  0  0  0  0
   -2.6823   -2.2350    0.0000 O   0  0  0  0  0  0  0  0  0  0  0  0
   -1.1493   -0.1374    0.0000 O   0  0  0  0  0  0  0  0  0  0  0  0
    0.0617   -1.0225    0.0000 C   0  0  0  0  0  0  0  0  0  0  0  0
    1.4337   -0.4162    0.0000 C   0  0  0  0  0  0  0  0  0  0  0  0
    2.7307   -1.1698    0.0000 C   0  0  0  0  0  0  0  0  0  0  0  0
    3.0384   -2.6379    0.0000 C   0  0  0  0  0  0  0  0  0  0  0  0
    4.4637   -3.1054    0.0000 C   0  0  0  0  0  0  0  0  0  0  0  0
    5.5812   -2.1048    0.0000 C   0  0  0  0  0  0  0  0  0  0  0  0
    5.2735   -0.6367    0.0000 C   0  0  0  0  0  0  0  0  0  0  0  0
    3.8482   -0.1692    0.0000 C   0  0  0  0  0  0  0  0  0  0  0  0
    3.2419    1.2028    0.0000 C   0  0  0  0  0  0  0  0  0  0  0  0
    3.8558    2.5714    0.0000 C   0  0  0  0  0  0  0  0  0  0  0  0
    2.9776    3.7874    0.0000 C   0  0  0  0  0  0  0  0  0  0  0  0
    1.4853    3.6348    0.0000 C   0  0  0  0  0  0  0  0  0  0  0  0
    0.8714    2.2661    0.0000 C   0  0  0  0  0  0  0  0  0  0  0  0
    1.7497    1.0502    0.0000 C   0  0  0  0  0  0  0  0  0  0  0  0
   -6.3155    0.4202    0.0000 C   0  0  0  0  0  0  0  0  0  0  0  0
   -6.1545    1.9115    0.0000 O   0  0  0  0  0  0  0  0  0  0  0  0
   -7.6875   -0.1861    0.0000 O   0  0  0  0  0  0  0  0  0  0  0  0
  2  1  1  6
  2  3  1  0
  3  4  1  0
  4  5  2  0
  4  6  1  0
  6  7  1  0
  7  8  1  0
  8  9  1  0
  9 10  2  0
 10 11  1  0
 11 12  2  0
 12 13  1  0
 13 14  2  0
 14 15  1  0
 15 16  2  0
 16 17  1  0
 17 18  2  0
 18 19  1  0
 19 20  2  0
  2 21  1  0
 21 22  2  0
 21 23  1  0
 14  9  1  0
 20 15  1  0
 20  8  1  0
M  END
>  <rName>  (1721) 
Asp_OFm

>  <PQ_SYMBOL>  (1721) 
Asp_OFm

>  <FULL_NAME>  (1721) 
(S)-4-((9H-fluoren-9-yl)methoxy)-2-amino-4-oxobutanoic acid

>  <IUPAC_CONDENSED>  (1721) 
Asp(OFm)

>  <IUPAC>  (1721) 
(2S)-2-amino-3-((((tricyclo[7.4.0.0^{2,7}]trideca-1(13),2,4,6,9,11-hexaen-8-yl)methyl)oxy)carbonyl)propanoic acid

>  <TYPE>  (1721) 
Backbone

>  <CLASS>  (1721) 
alpha

>  <ANALOG>  (1721) 
Asp

>  <MOL_WT>  (1721) 
311.3370000000001

>  <LOGP>  (1721) 
2.1440999999999995

>  <TPSA>  (1721) 
89.62000000000002

>  <POPULARITY>  (1721) 
4.2

>  <PROTECTED>  (1721) 
TRUE

>  <SMILES>  (1721) 
N[C@@H](CC(=O)OCC3(c1(ccccc1c2(ccccc23))))C(=O)O

>  <INCHIKEY>  (1721) 
FDNQJSUPJXCUFZ-INIZCTEOSA-N

$$$$
NMe-Phe_4Ph
     RDKit          2D

 19 20  0  0  0  0  0  0  0  0999 V2000
   -3.1223    1.4274    0.0000 N   0  0  0  0  0  0  0  0  0  0  0  0
   -4.1006    2.5645    0.0000 C   0  0  0  0  0  0  0  0  0  0  0  0
   -3.6178    0.0116    0.0000 C   0  0  0  0  0  0  0  0  0  0  0  0
   -2.6395   -1.1254    0.0000 C   0  0  0  0  0  0  0  0  0  0  0  0
   -1.1656   -0.8467    0.0000 C   0  0  0  0  0  0  0  0  0  0  0  0
   -0.6701    0.5691    0.0000 C   0  0  0  0  0  0  0  0  0  0  0  0
    0.8038    0.8478    0.0000 C   0  0  0  0  0  0  0  0  0  0  0  0
    1.7821   -0.2892    0.0000 C   0  0  0  0  0  0  0  0  0  0  0  0
    1.2866   -1.7050    0.0000 C   0  0  0  0  0  0  0  0  0  0  0  0
   -0.1873   -1.9837    0.0000 C   0  0  0  0  0  0  0  0  0  0  0  0
    3.2560   -0.0105    0.0000 C   0  0  0  0  0  0  0  0  0  0  0  0
    4.2344   -1.1475    0.0000 C   0  0  0  0  0  0  0  0  0  0  0  0
    5.7082   -0.8688    0.0000 C   0  0  0  0  0  0  0  0  0  0  0  0
    6.2038    0.5470    0.0000 C   0  0  0  0  0  0  0  0  0  0  0  0
    5.2254    1.6840    0.0000 C   0  0  0  0  0  0  0  0  0  0  0  0
    3.7516    1.4053    0.0000 C   0  0  0  0  0  0  0  0  0  0  0  0
   -5.0917   -0.2671    0.0000 C   0  0  0  0  0  0  0  0  0  0  0  0
   -5.5872   -1.6829    0.0000 O   0  0  0  0  0  0  0  0  0  0  0  0
   -6.0700    0.8700    0.0000 O   0  0  0  0  0  0  0  0  0  0  0  0
  1  2  1  0
  1  3  1  0
  3  4  1  1
  4  5  1  0
  5  6  1  0
  6  7  2  0
  7  8  1  0
  8  9  2  0
  9 10  1  0
  8 11  1  0
 11 12  2  0
 12 13  1  0
 13 14  2  0
 14 15  1  0
 15 16  2  0
  3 17  1  0
 17 18  2  0
 17 19  1  0
 10  5  2  0
 16 11  1  0
M  END
>  <rName>  (1722) 
NMe-Phe_4Ph

>  <PQ_SYMBOL>  (1722) 
NMe-Phe_4Ph

>  <FULL_NAME>  (1722) 
(S)-3-([1,1'-biphenyl]-4-yl)-2-(methylamino)propanoic acid

>  <IUPAC_CONDENSED>  (1722) 
Me-Phe(4-Ph)

>  <IUPAC>  (1722) 
(2S)-2-(methylamino)-3-(4-phenylphenyl)propanoic acid

>  <TYPE>  (1722) 
Backbone

>  <CLASS>  (1722) 
alpha

>  <ANALOG>  (1722) 
Phe

>  <MOL_WT>  (1722) 
255.317

>  <LOGP>  (1722) 
2.5686999999999998

>  <TPSA>  (1722) 
49.33

>  <POPULARITY>  (1722) 
8.4

>  <PROTECTED>  (1722) 
TRUE

>  <SMILES>  (1722) 
N(C)[C@@H](Cc1(ccc(cc1)c2(ccccc2)))C(=O)O

>  <INCHIKEY>  (1722) 
ZRCUZTGKMSPCBH-HNNXBMFYSA-N

$$$$
Met-Gly
     RDKit          2D

 13 12  0  0  0  0  0  0  0  0999 V2000
   -1.6032    0.1982    0.0000 N   0  0  0  0  0  0  0  0  0  0  0  0
   -0.2892   -0.5252    0.0000 C   0  0  0  0  0  0  0  0  0  0  0  0
   -0.2587   -2.0249    0.0000 O   0  0  0  0  0  0  0  0  0  0  0  0
    0.9944    0.2510    0.0000 C   0  0  0  0  0  0  0  0  0  0  0  0
    0.9639    1.7507    0.0000 N   0  0  0  0  0  0  0  0  0  0  0  0
    2.3084   -0.4724    0.0000 C   0  0  0  0  0  0  0  0  0  0  0  0
    3.5919    0.3038    0.0000 C   0  0  0  0  0  0  0  0  0  0  0  0
    4.9059   -0.4196    0.0000 S   0  0  0  0  0  0  0  0  0  0  0  0
    6.1894    0.3566    0.0000 C   0  0  0  0  0  0  0  0  0  0  0  0
   -2.8867   -0.5780    0.0000 C   0  0  0  0  0  0  0  0  0  0  0  0
   -4.2007    0.1455    0.0000 C   0  0  0  0  0  0  0  0  0  0  0  0
   -4.2312    1.6451    0.0000 O   0  0  0  0  0  0  0  0  0  0  0  0
   -5.4842   -0.6308    0.0000 O   0  0  0  0  0  0  0  0  0  0  0  0
  1  2  1  0
  2  3  2  0
  2  4  1  0
  4  5  1  1
  4  6  1  0
  6  7  1  0
  7  8  1  0
  8  9  1  0
  1 10  1  0
 10 11  1  0
 11 12  2  0
 11 13  1  0
M  END
>  <rName>  (1723) 
Met-Gly

>  <PQ_SYMBOL>  (1723) 
Met-Gly

>  <FULL_NAME>  (1723) 
L-methionylglycine

>  <IUPAC_CONDENSED>  (1723) 
Met-Gly

>  <IUPAC>  (1723) 
2-((1S)-1-amino-3-(methylsulfanyl)propylcarbonylamino)acetic acid

>  <TYPE>  (1723) 
Backbone

>  <CLASS>  (1723) 
alpha

>  <ANALOG>  (1723) 
Gly

>  <MOL_WT>  (1723) 
206.267

>  <LOGP>  (1723) 
-0.7324000000000002

>  <TPSA>  (1723) 
92.42

>  <POPULARITY>  (1723) 
11

>  <PROTECTED>  (1723) 
TRUE

>  <SMILES>  (1723) 
N(C(=O)[C@@H](N)CCSC)CC(=O)O

>  <INCHIKEY>  (1723) 
QXOHLNCNYLGICT-YFKPBYRVSA-N

$$$$
bAla-Leu
     RDKit          2D

 14 13  0  0  0  0  0  0  0  0999 V2000
   -0.0047   -0.4910    0.0000 N   0  0  0  0  0  0  0  0  0  0  0  0
    1.4173   -0.0135    0.0000 C   0  0  0  0  0  0  0  0  0  0  0  0
    1.7148    1.4567    0.0000 O   0  0  0  0  0  0  0  0  0  0  0  0
    2.5418   -1.0063    0.0000 C   0  0  0  0  0  0  0  0  0  0  0  0
    3.9638   -0.5288    0.0000 C   0  0  0  0  0  0  0  0  0  0  0  0
    5.0882   -1.5216    0.0000 N   0  0  0  0  0  0  0  0  0  0  0  0
   -1.1292    0.5018    0.0000 C   0  0  0  0  0  0  0  0  0  0  0  0
   -2.5511    0.0243    0.0000 C   0  0  0  0  0  0  0  0  0  0  0  0
   -2.8487   -1.4459    0.0000 C   0  0  0  0  0  0  0  0  0  0  0  0
   -4.2706   -1.9233    0.0000 C   0  0  0  0  0  0  0  0  0  0  0  0
   -1.7242   -2.4386    0.0000 C   0  0  0  0  0  0  0  0  0  0  0  0
   -0.8316    1.9720    0.0000 C   0  0  0  0  0  0  0  0  0  0  0  0
   -1.9561    2.9647    0.0000 O   0  0  0  0  0  0  0  0  0  0  0  0
    0.5903    2.4494    0.0000 O   0  0  0  0  0  0  0  0  0  0  0  0
  1  2  1  0
  2  3  2  0
  2  4  1  0
  4  5  1  0
  5  6  1  0
  1  7  1  0
  7  8  1  1
  8  9  1  0
  9 10  1  0
  9 11  1  0
  7 12  1  0
 12 13  2  0
 12 14  1  0
M  END
>  <rName>  (1724) 
bAla-Leu

>  <PQ_SYMBOL>  (1724) 
bAla-Leu

>  <FULL_NAME>  (1724) 
(3-aminopropanoyl)-L-leucine

>  <IUPAC_CONDENSED>  (1724) 
bAla-Leu

>  <IUPAC>  (1724) 
(2S)-2-(2-aminoethylcarbonylamino)-4-methylpentanoic acid

>  <TYPE>  (1724) 
Backbone

>  <CLASS>  (1724) 
alpha

>  <ANALOG>  (1724) 
Leu

>  <MOL_WT>  (1724) 
202.254

>  <LOGP>  (1724) 
-0.04929999999999929

>  <TPSA>  (1724) 
92.42

>  <POPULARITY>  (1724) 
8.8

>  <PROTECTED>  (1724) 
TRUE

>  <SMILES>  (1724) 
N(C(=O)CCN)[C@@H](CC(C)C)C(=O)O

>  <INCHIKEY>  (1724) 
YVFFCSSMTOXAQS-ZETCQYMHSA-N

$$$$
Ala_22diMe1_3benzodioxolyl
     RDKit          2D

 17 18  0  0  0  0  0  0  0  0999 V2000
   -3.1695    1.6432    0.0000 N   0  0  0  0  0  0  0  0  0  0  0  0
   -3.3954    0.1603    0.0000 C   0  0  0  0  0  0  0  0  0  0  0  0
   -2.2241   -0.7768    0.0000 C   0  0  0  0  0  0  0  0  0  0  0  0
   -0.8270   -0.2310    0.0000 C   0  0  0  0  0  0  0  0  0  0  0  0
   -0.6010    1.2519    0.0000 C   0  0  0  0  0  0  0  0  0  0  0  0
    0.7962    1.7976    0.0000 C   0  0  0  0  0  0  0  0  0  0  0  0
    1.9674    0.8605    0.0000 C   0  0  0  0  0  0  0  0  0  0  0  0
    3.4475    1.1039    0.0000 O   0  0  0  0  0  0  0  0  0  0  0  0
    4.1364   -0.2286    0.0000 C   0  0  0  0  0  0  0  0  0  0  0  0
    3.0820   -1.2955    0.0000 O   0  0  0  0  0  0  0  0  0  0  0  0
    1.7415   -0.6223    0.0000 C   0  0  0  0  0  0  0  0  0  0  0  0
    0.3443   -1.1681    0.0000 C   0  0  0  0  0  0  0  0  0  0  0  0
    5.3895    0.5958    0.0000 C   0  0  0  0  0  0  0  0  0  0  0  0
    5.0872   -1.3887    0.0000 C   0  0  0  0  0  0  0  0  0  0  0  0
   -4.7926   -0.3855    0.0000 C   0  0  0  0  0  0  0  0  0  0  0  0
   -5.0185   -1.8684    0.0000 O   0  0  0  0  0  0  0  0  0  0  0  0
   -5.9638    0.5516    0.0000 O   0  0  0  0  0  0  0  0  0  0  0  0
  2  1  1  1
  2  3  1  0
  3  4  1  0
  4  5  1  0
  5  6  2  0
  6  7  1  0
  7  8  1  0
  8  9  1  0
  9 10  1  0
 10 11  1  0
 11 12  1  0
  9 13  1  0
  9 14  1  0
  2 15  1  0
 15 16  2  0
 15 17  1  0
 11  7  2  0
 12  4  2  0
M  END
>  <rName>  (1725) 
Ala_22diMe1_3benzodioxolyl

>  <PQ_SYMBOL>  (1725) 
Ala_22diMe1_3benzodioxolyl

>  <FULL_NAME>  (1725) 
(S)-2-amino-3-(2,2-dimethylbenzo[d][1,3]dioxol-5-yl)propanoic acid

>  <IUPAC_CONDENSED>  (1725) 
Ala(2,2-diMe-1,3-benzodioxolyl)

>  <IUPAC>  (1725) 
(2S)-2-amino-3-(8,8-dimethyl-7,9-dioxabicyclo[4.3.0]nona-1,3,5-trien-3-yl)propanoic acid

>  <TYPE>  (1725) 
Backbone

>  <CLASS>  (1725) 
alpha

>  <ANALOG>  (1725) 
Tyr

>  <MOL_WT>  (1725) 
237.25499999999997

>  <LOGP>  (1725) 
1.1482999999999999

>  <TPSA>  (1725) 
81.78

>  <POPULARITY>  (1725) 
5.2

>  <PROTECTED>  (1725) 
TRUE

>  <SMILES>  (1725) 
N[C@@H](Cc2(ccc1(OC(Oc1c2)(C)C)))C(=O)O

>  <INCHIKEY>  (1725) 
PFPPGLZXDDFWGF-QMMMGPOBSA-N

$$$$
D-Abu_vinyl
     RDKit          2D

  9  8  0  0  0  0  0  0  0  0999 V2000
    0.7616   -1.8791    0.0000 N   0  0  0  0  0  0  0  0  0  0  0  0
    0.8459   -0.3815    0.0000 C   0  0  0  0  0  0  0  0  0  0  0  0
   -0.4089    0.4403    0.0000 C   0  0  0  0  0  0  0  0  0  0  0  0
   -1.7480   -0.2354    0.0000 C   0  0  0  0  0  0  0  0  0  0  0  0
   -3.0029    0.5864    0.0000 C   0  0  0  0  0  0  0  0  0  0  0  0
   -4.3420   -0.0894    0.0000 C   0  0  0  0  0  0  0  0  0  0  0  0
    2.1851    0.2943    0.0000 C   0  0  0  0  0  0  0  0  0  0  0  0
    2.2694    1.7919    0.0000 O   0  0  0  0  0  0  0  0  0  0  0  0
    3.4399   -0.5275    0.0000 O   0  0  0  0  0  0  0  0  0  0  0  0
  2  1  1  6
  2  3  1  0
  3  4  1  0
  4  5  1  0
  5  6  2  0
  2  7  1  0
  7  8  2  0
  7  9  1  0
M  END
>  <rName>  (1726) 
D-Abu_vinyl

>  <PQ_SYMBOL>  (1726) 
D-Abu_vinyl

>  <FULL_NAME>  (1726) 
(R)-2-aminohex-5-enoic acid

>  <IUPAC_CONDENSED>  (1726) 
D-Abu(vinyl)

>  <IUPAC>  (1726) 
(2R)-2-aminohex-5-enoic acid

>  <TYPE>  (1726) 
Backbone

>  <CLASS>  (1726) 
alpha

>  <ANALOG>  (1726) 
Leu

>  <MOL_WT>  (1726) 
129.159

>  <LOGP>  (1726) 
0.3645

>  <TPSA>  (1726) 
63.32000000000001

>  <POPULARITY>  (1726) 
9.4

>  <PROTECTED>  (1726) 
TRUE

>  <SMILES>  (1726) 
N[C@H](CCC=C)C(=O)O

>  <INCHIKEY>  (1726) 
NPSWHDAHNWWMEG-RXMQYKEDSA-N

$$$$
Gly-Val
     RDKit          2D

 12 11  0  0  0  0  0  0  0  0999 V2000
    0.4014    1.0131    0.0000 N   0  0  0  0  0  0  0  0  0  0  0  0
    1.7233    0.3043    0.0000 C   0  0  0  0  0  0  0  0  0  0  0  0
    1.7705   -1.1949    0.0000 O   0  0  0  0  0  0  0  0  0  0  0  0
    2.9981    1.0948    0.0000 C   0  0  0  0  0  0  0  0  0  0  0  0
    4.3201    0.3860    0.0000 N   0  0  0  0  0  0  0  0  0  0  0  0
   -0.8735    0.2226    0.0000 C   0  0  0  0  0  0  0  0  0  0  0  0
   -2.1954    0.9314    0.0000 C   0  0  0  0  0  0  0  0  0  0  0  0
   -2.2426    2.4307    0.0000 C   0  0  0  0  0  0  0  0  0  0  0  0
   -3.4702    0.1409    0.0000 C   0  0  0  0  0  0  0  0  0  0  0  0
   -0.8263   -1.2766    0.0000 C   0  0  0  0  0  0  0  0  0  0  0  0
   -2.1011   -2.0671    0.0000 O   0  0  0  0  0  0  0  0  0  0  0  0
    0.4957   -1.9854    0.0000 O   0  0  0  0  0  0  0  0  0  0  0  0
  1  2  1  0
  2  3  2  0
  2  4  1  0
  4  5  1  0
  6  1  1  6
  6  7  1  0
  7  8  1  0
  7  9  1  0
  6 10  1  0
 10 11  2  0
 10 12  1  0
M  END
>  <rName>  (1727) 
Gly-Val

>  <PQ_SYMBOL>  (1727) 
Gly-Val

>  <FULL_NAME>  (1727) 
glycyl-L-valine

>  <IUPAC_CONDENSED>  (1727) 
Gly-Val

>  <IUPAC>  (1727) 
(2S)-2-aminomethylcarbonylamino-3-methylbutanoic acid

>  <TYPE>  (1727) 
Backbone

>  <CLASS>  (1727) 
alpha

>  <ANALOG>  (1727) 
Val

>  <MOL_WT>  (1727) 
174.19999999999996

>  <LOGP>  (1727) 
-0.8295000000000003

>  <TPSA>  (1727) 
92.42

>  <POPULARITY>  (1727) 
16.1

>  <PROTECTED>  (1727) 
TRUE

>  <SMILES>  (1727) 
N(C(=O)CN)[C@@H](C(C)C)C(=O)O

>  <INCHIKEY>  (1727) 
STKYPAFSDFAEPH-LURJTMIESA-N

$$$$
Gaba_3cHex
     RDKit          2D

 12 12  0  0  0  0  0  0  0  0999 V2000
    0.4929   -2.3374    0.0000 N   0  0  0  0  0  0  0  0  0  0  0  0
    0.8312   -0.8760    0.0000 C   0  0  0  0  0  0  0  0  0  0  0  0
   -0.2652    0.1477    0.0000 C   0  0  0  0  0  0  0  0  0  0  0  0
   -1.0830   -1.1098    0.0000 C   0  0  0  0  0  0  0  0  0  0  0  0
   -2.5808   -1.0304    0.0000 C   0  0  0  0  0  0  0  0  0  0  0  0
   -3.2610    0.3065    0.0000 C   0  0  0  0  0  0  0  0  0  0  0  0
   -2.4433    1.5640    0.0000 C   0  0  0  0  0  0  0  0  0  0  0  0
   -0.9454    1.4846    0.0000 C   0  0  0  0  0  0  0  0  0  0  0  0
    0.9333    1.0497    0.0000 C   0  0  0  0  0  0  0  0  0  0  0  0
    2.3137    0.4627    0.0000 C   0  0  0  0  0  0  0  0  0  0  0  0
    2.4956   -1.0262    0.0000 O   0  0  0  0  0  0  0  0  0  0  0  0
    3.5122    1.3647    0.0000 O   0  0  0  0  0  0  0  0  0  0  0  0
  1  2  1  0
  2  3  1  0
  3  4  1  0
  4  5  1  0
  5  6  1  0
  6  7  1  0
  7  8  1  0
  3  9  1  0
  9 10  1  0
 10 11  2  0
 10 12  1  0
  8  3  1  0
M  END
>  <rName>  (1728) 
Gaba_3cHex

>  <PQ_SYMBOL>  (1728) 
Gaba_3cHex

>  <FULL_NAME>  (1728) 
2-(1-(aminomethyl)cyclohexyl)acetic acid

>  <IUPAC_CONDENSED>  (1728) 
Gaba(3-cHex)

>  <IUPAC>  (1728) 
2-(1-(aminomethyl)cyclohexyl)acetic acid

>  <TYPE>  (1728) 
Backbone

>  <CLASS>  (1728) 
gamma

>  <ANALOG>  (1728) 
X

>  <MOL_WT>  (1728) 
171.24

>  <LOGP>  (1728) 
1.3703000000000003

>  <TPSA>  (1728) 
63.32000000000001

>  <POPULARITY>  (1728) 
10.5

>  <PROTECTED>  (1728) 
TRUE

>  <SMILES>  (1728) 
NCC1(CCCCC1)CC(=O)O

>  <INCHIKEY>  (1728) 
UGJMXCAKCUNAIE-UHFFFAOYSA-N

$$$$
bPro
     RDKit          2D

  8  8  0  0  0  0  0  0  0  0999 V2000
   -2.2608   -0.7500    0.0000 N   0  0  0  0  0  0  0  0  0  0  0  0
   -0.8342   -1.2135    0.0000 C   0  0  0  0  0  0  0  0  0  0  0  0
    0.0475    0.0000    0.0000 C   0  0  0  0  0  0  0  0  0  0  0  0
   -0.8342    1.2135    0.0000 C   0  0  0  0  0  0  0  0  0  0  0  0
   -2.2608    0.7500    0.0000 C   0  0  0  0  0  0  0  0  0  0  0  0
    1.5475    0.0000    0.0000 C   0  0  0  0  0  0  0  0  0  0  0  0
    2.2975    1.2990    0.0000 O   0  0  0  0  0  0  0  0  0  0  0  0
    2.2975   -1.2990    0.0000 O   0  0  0  0  0  0  0  0  0  0  0  0
  1  2  1  0
  2  3  1  0
  3  4  1  0
  4  5  1  0
  3  6  1  0
  6  7  2  0
  6  8  1  0
  5  1  1  0
M  END
>  <rName>  (1729) 
bPro

>  <PQ_SYMBOL>  (1729) 
bPro

>  <FULL_NAME>  (1729) 
pyrrolidine-3-carboxylic acid

>  <IUPAC_CONDENSED>  (1729) 
bPro

>  <IUPAC>  (1729) 
pyrrolidine-3-carboxylic acid

>  <TYPE>  (1729) 
Backbone

>  <CLASS>  (1729) 
beta

>  <ANALOG>  (1729) 
Pro

>  <MOL_WT>  (1729) 
115.13199999999999

>  <LOGP>  (1729) 
-0.31949999999999995

>  <TPSA>  (1729) 
49.33

>  <POPULARITY>  (1729) 
15.3

>  <PROTECTED>  (1729) 
TRUE

>  <SMILES>  (1729) 
N1CC(CC1)C(=O)O

>  <INCHIKEY>  (1729) 
JAEIBKXSIXOLOL-UHFFFAOYSA-N

$$$$
Thr_OVal
     RDKit          2D

 15 14  0  0  0  0  0  0  0  0999 V2000
    0.9451   -1.4201    0.0000 N   0  0  0  0  0  0  0  0  0  0  0  0
    1.9304   -0.2891    0.0000 C   0  0  0  0  0  0  0  0  0  0  0  0
    1.4435    1.1297    0.0000 C   0  0  0  0  0  0  0  0  0  0  0  0
   -0.0286    1.4175    0.0000 O   0  0  0  0  0  0  0  0  0  0  0  0
   -1.0139    0.2864    0.0000 C   0  0  0  0  0  0  0  0  0  0  0  0
   -0.5270   -1.1324    0.0000 O   0  0  0  0  0  0  0  0  0  0  0  0
   -2.4860    0.5742    0.0000 C   0  0  0  0  0  0  0  0  0  0  0  0
   -2.9729    1.9930    0.0000 N   0  0  0  0  0  0  0  0  0  0  0  0
   -3.4713   -0.5568    0.0000 C   0  0  0  0  0  0  0  0  0  0  0  0
   -4.9434   -0.2690    0.0000 C   0  0  0  0  0  0  0  0  0  0  0  0
   -2.9845   -1.9756    0.0000 C   0  0  0  0  0  0  0  0  0  0  0  0
    2.4288    2.2607    0.0000 C   0  0  0  0  0  0  0  0  0  0  0  0
    3.4025   -0.5769    0.0000 C   0  0  0  0  0  0  0  0  0  0  0  0
    4.3878    0.5541    0.0000 O   0  0  0  0  0  0  0  0  0  0  0  0
    3.8894   -1.9957    0.0000 O   0  0  0  0  0  0  0  0  0  0  0  0
  2  1  1  1
  2  3  1  0
  3  4  1  0
  4  5  1  0
  5  6  2  0
  5  7  1  0
  7  8  1  6
  7  9  1  0
  9 10  1  0
  9 11  1  0
  3 12  1  6
  2 13  1  0
 13 14  2  0
 13 15  1  0
M  END
>  <rName>  (1730) 
Thr_OVal

>  <PQ_SYMBOL>  (1730) 
Thr_OVal

>  <FULL_NAME>  (1730) 
O-(L-valyl)-L-threonine

>  <IUPAC_CONDENSED>  (1730) 
Thr(O-Val)

>  <IUPAC>  (1730) 
(2S,3R)-2-amino-3-((1S)-1-amino-2-methylpropylcarbonyloxy)butanoic acid

>  <TYPE>  (1730) 
Backbone

>  <CLASS>  (1730) 
alpha

>  <ANALOG>  (1730) 
Thr

>  <MOL_WT>  (1730) 
218.253

>  <LOGP>  (1730) 
-0.6866999999999994

>  <TPSA>  (1730) 
115.64

>  <POPULARITY>  (1730) 
8.5

>  <PROTECTED>  (1730) 
TRUE

>  <SMILES>  (1730) 
N[C@@H]([C@H](OC(=O)[C@@H](N)C(C)C)C)C(=O)O

>  <INCHIKEY>  (1730) 
KLFVKVGMKBUROO-VQVTYTSYSA-N

$$$$
Asp-Gly
     RDKit          2D

 13 12  0  0  0  0  0  0  0  0999 V2000
   -1.3967   -0.1401    0.0000 N   0  0  0  0  0  0  0  0  0  0  0  0
   -0.1111    0.6328    0.0000 C   0  0  0  0  0  0  0  0  0  0  0  0
   -0.1376    2.1325    0.0000 O   0  0  0  0  0  0  0  0  0  0  0  0
    1.2010   -0.0942    0.0000 C   0  0  0  0  0  0  0  0  0  0  0  0
    1.2275   -1.5939    0.0000 N   0  0  0  0  0  0  0  0  0  0  0  0
    2.4865    0.6786    0.0000 C   0  0  0  0  0  0  0  0  0  0  0  0
    3.7986   -0.0483    0.0000 C   0  0  0  0  0  0  0  0  0  0  0  0
    3.8251   -1.5481    0.0000 O   0  0  0  0  0  0  0  0  0  0  0  0
    5.0842    0.7245    0.0000 O   0  0  0  0  0  0  0  0  0  0  0  0
   -2.7088    0.5869    0.0000 C   0  0  0  0  0  0  0  0  0  0  0  0
   -3.9944   -0.1860    0.0000 C   0  0  0  0  0  0  0  0  0  0  0  0
   -3.9679   -1.6857    0.0000 O   0  0  0  0  0  0  0  0  0  0  0  0
   -5.3065    0.5410    0.0000 O   0  0  0  0  0  0  0  0  0  0  0  0
  1  2  1  0
  2  3  2  0
  2  4  1  0
  4  5  1  6
  4  6  1  0
  6  7  1  0
  7  8  2  0
  7  9  1  0
  1 10  1  0
 10 11  1  0
 11 12  2  0
 11 13  1  0
M  END
>  <rName>  (1731) 
Asp-Gly

>  <PQ_SYMBOL>  (1731) 
Asp-Gly

>  <FULL_NAME>  (1731) 
(S)-3-amino-4-((carboxymethyl)amino)-4-oxobutanoic acid

>  <IUPAC_CONDENSED>  (1731) 
Asp-Gly

>  <IUPAC>  (1731) 
(3S)-3-amino-3-((2-hydroxy-2-oxoethyl)carbamoyl)propanoic acid

>  <TYPE>  (1731) 
Backbone

>  <CLASS>  (1731) 
alpha

>  <ANALOG>  (1731) 
Gly

>  <MOL_WT>  (1731) 
190.155

>  <LOGP>  (1731) 
-2.0107999999999997

>  <TPSA>  (1731) 
129.72

>  <POPULARITY>  (1731) 
14.2

>  <PROTECTED>  (1731) 
TRUE

>  <SMILES>  (1731) 
N(C(=O)[C@@H](N)CC(=O)O)CC(=O)O

>  <INCHIKEY>  (1731) 
JHFNSBBHKSZXKB-VKHMYHEASA-N

$$$$
Ser_OThr
     RDKit          2D

 14 13  0  0  0  0  0  0  0  0999 V2000
   -2.7260    1.9336    0.0000 N   0  0  0  0  0  0  0  0  0  0  0  0
   -2.6991    0.4338    0.0000 C   0  0  0  0  0  0  0  0  0  0  0  0
   -1.3868   -0.2928    0.0000 C   0  0  0  0  0  0  0  0  0  0  0  0
   -0.1014    0.4804    0.0000 O   0  0  0  0  0  0  0  0  0  0  0  0
    1.2109   -0.2462    0.0000 C   0  0  0  0  0  0  0  0  0  0  0  0
    1.2378   -1.7459    0.0000 O   0  0  0  0  0  0  0  0  0  0  0  0
    2.4962    0.5270    0.0000 C   0  0  0  0  0  0  0  0  0  0  0  0
    2.4693    2.0267    0.0000 N   0  0  0  0  0  0  0  0  0  0  0  0
    3.8085   -0.1996    0.0000 C   0  0  0  0  0  0  0  0  0  0  0  0
    3.8354   -1.6994    0.0000 O   0  0  0  0  0  0  0  0  0  0  0  0
    5.0939    0.5736    0.0000 C   0  0  0  0  0  0  0  0  0  0  0  0
   -3.9845   -0.3394    0.0000 C   0  0  0  0  0  0  0  0  0  0  0  0
   -3.9576   -1.8391    0.0000 O   0  0  0  0  0  0  0  0  0  0  0  0
   -5.2967    0.3872    0.0000 O   0  0  0  0  0  0  0  0  0  0  0  0
  2  1  1  1
  2  3  1  0
  3  4  1  0
  4  5  1  0
  5  6  2  0
  5  7  1  0
  7  8  1  1
  7  9  1  0
  9 10  1  0
  9 11  1  1
  2 12  1  0
 12 13  2  0
 12 14  1  0
M  END
>  <rName>  (1732) 
Ser_OThr

>  <PQ_SYMBOL>  (1732) 
Ser_OThr

>  <FULL_NAME>  (1732) 
O-(L-threonyl)-L-serine

>  <IUPAC_CONDENSED>  (1732) 
Ser(O-Thr)

>  <IUPAC>  (1732) 
(2S)-2-amino-3-((1S,2R)-1-amino-2-hydroxypropylcarbonyloxy)propanoic acid

>  <TYPE>  (1732) 
Backbone

>  <CLASS>  (1732) 
alpha

>  <ANALOG>  (1732) 
Ser

>  <MOL_WT>  (1732) 
206.198

>  <LOGP>  (1732) 
-2.3503999999999987

>  <TPSA>  (1732) 
135.87

>  <POPULARITY>  (1732) 
4.7

>  <PROTECTED>  (1732) 
TRUE

>  <SMILES>  (1732) 
N[C@@H](COC(=O)[C@@H](N)[C@H](O)C)C(=O)O

>  <INCHIKEY>  (1732) 
HYSIMHWTLUDZPY-WISUUJSJSA-N

$$$$
Ser_OAsn
     RDKit          2D

 15 14  0  0  0  0  0  0  0  0999 V2000
   -3.0893   -1.9459    0.0000 N   0  0  0  0  0  0  0  0  0  0  0  0
   -3.1825   -0.4488    0.0000 C   0  0  0  0  0  0  0  0  0  0  0  0
   -1.9327    0.3806    0.0000 C   0  0  0  0  0  0  0  0  0  0  0  0
   -0.5895   -0.2872    0.0000 O   0  0  0  0  0  0  0  0  0  0  0  0
    0.6604    0.5421    0.0000 C   0  0  0  0  0  0  0  0  0  0  0  0
    0.5671    2.0392    0.0000 O   0  0  0  0  0  0  0  0  0  0  0  0
    2.0035   -0.1257    0.0000 C   0  0  0  0  0  0  0  0  0  0  0  0
    2.0968   -1.6228    0.0000 N   0  0  0  0  0  0  0  0  0  0  0  0
    3.2534    0.7037    0.0000 C   0  0  0  0  0  0  0  0  0  0  0  0
    4.5966    0.0359    0.0000 C   0  0  0  0  0  0  0  0  0  0  0  0
    4.6899   -1.4612    0.0000 O   0  0  0  0  0  0  0  0  0  0  0  0
    5.8465    0.8652    0.0000 N   0  0  0  0  0  0  0  0  0  0  0  0
   -4.5257    0.2190    0.0000 C   0  0  0  0  0  0  0  0  0  0  0  0
   -4.6190    1.7161    0.0000 O   0  0  0  0  0  0  0  0  0  0  0  0
   -5.7756   -0.6103    0.0000 O   0  0  0  0  0  0  0  0  0  0  0  0
  2  1  1  6
  2  3  1  0
  3  4  1  0
  4  5  1  0
  5  6  2  0
  5  7  1  0
  7  8  1  6
  7  9  1  0
  9 10  1  0
 10 11  2  0
 10 12  1  0
  2 13  1  0
 13 14  2  0
 13 15  1  0
M  END
>  <rName>  (1733) 
Ser_OAsn

>  <PQ_SYMBOL>  (1733) 
Ser_OAsn

>  <FULL_NAME>  (1733) 
O-(L-asparaginyl)-L-serine

>  <IUPAC_CONDENSED>  (1733) 
Ser(O-Asn)

>  <IUPAC>  (1733) 
(2S)-2-amino-3-((1S)-1,3-diamino-3-oxopropylcarbonyloxy)propanoic acid

>  <TYPE>  (1733) 
Backbone

>  <CLASS>  (1733) 
alpha

>  <ANALOG>  (1733) 
Ser

>  <MOL_WT>  (1733) 
219.19699999999997

>  <LOGP>  (1733) 
-2.8557999999999977

>  <TPSA>  (1733) 
158.73

>  <POPULARITY>  (1733) 
2.9

>  <PROTECTED>  (1733) 
TRUE

>  <SMILES>  (1733) 
N[C@@H](COC(=O)[C@@H](N)CC(=O)N)C(=O)O

>  <INCHIKEY>  (1733) 
XBSLWEZXUKNJHF-IMJSIDKUSA-N

$$$$
Ser_OGlu
     RDKit          2D

 16 15  0  0  0  0  0  0  0  0999 V2000
    3.7763    1.8878    0.0000 N   0  0  0  0  0  0  0  0  0  0  0  0
    3.7440    0.3881    0.0000 C   0  0  0  0  0  0  0  0  0  0  0  0
    2.4291   -0.3337    0.0000 C   0  0  0  0  0  0  0  0  0  0  0  0
    1.1465    0.4441    0.0000 O   0  0  0  0  0  0  0  0  0  0  0  0
   -0.1684   -0.2777    0.0000 C   0  0  0  0  0  0  0  0  0  0  0  0
   -0.2007   -1.7773    0.0000 O   0  0  0  0  0  0  0  0  0  0  0  0
   -1.4510    0.5001    0.0000 C   0  0  0  0  0  0  0  0  0  0  0  0
   -1.4186    1.9998    0.0000 N   0  0  0  0  0  0  0  0  0  0  0  0
   -2.7659   -0.2217    0.0000 C   0  0  0  0  0  0  0  0  0  0  0  0
   -4.0484    0.5562    0.0000 C   0  0  0  0  0  0  0  0  0  0  0  0
   -5.3634   -0.1657    0.0000 C   0  0  0  0  0  0  0  0  0  0  0  0
   -5.3957   -1.6653    0.0000 O   0  0  0  0  0  0  0  0  0  0  0  0
   -6.6459    0.6122    0.0000 O   0  0  0  0  0  0  0  0  0  0  0  0
    5.0265   -0.3897    0.0000 C   0  0  0  0  0  0  0  0  0  0  0  0
    4.9942   -1.8894    0.0000 O   0  0  0  0  0  0  0  0  0  0  0  0
    6.3414    0.3321    0.0000 O   0  0  0  0  0  0  0  0  0  0  0  0
  2  1  1  6
  2  3  1  0
  3  4  1  0
  4  5  1  0
  5  6  2  0
  5  7  1  0
  7  8  1  6
  7  9  1  0
  9 10  1  0
 10 11  1  0
 11 12  2  0
 11 13  1  0
  2 14  1  0
 14 15  2  0
 14 16  1  0
M  END
>  <rName>  (1734) 
Ser_OGlu

>  <PQ_SYMBOL>  (1734) 
Ser_OGlu

>  <FULL_NAME>  (1734) 
(S)-4-amino-5-((S)-2-amino-2-carboxyethoxy)-5-oxopentanoic acid

>  <IUPAC_CONDENSED>  (1734) 
Ser(O-Glu)

>  <IUPAC>  (1734) 
(4S)-4-amino-4-(((2S)-2-amino-3-hydroxy-3-oxopropoxy)carbonyl)butanoic acid

>  <TYPE>  (1734) 
Backbone

>  <CLASS>  (1734) 
alpha

>  <ANALOG>  (1734) 
Ser

>  <MOL_WT>  (1734) 
234.20799999999997

>  <LOGP>  (1734) 
-1.8663999999999978

>  <TPSA>  (1734) 
152.94

>  <POPULARITY>  (1734) 
2.8

>  <PROTECTED>  (1734) 
TRUE

>  <SMILES>  (1734) 
N[C@@H](COC(=O)[C@@H](N)CCC(=O)O)C(=O)O

>  <INCHIKEY>  (1734) 
JCWTXEASOZBHFE-WHFBIAKZSA-N

$$$$
Ser_OHis
     RDKit          2D

 17 17  0  0  0  0  0  0  0  0999 V2000
   -3.7981    2.0012    0.0000 N   0  0  0  0  0  0  0  0  0  0  0  0
   -3.9609    0.5101    0.0000 C   0  0  0  0  0  0  0  0  0  0  0  0
   -2.7510   -0.3765    0.0000 C   0  0  0  0  0  0  0  0  0  0  0  0
   -1.3782    0.2280    0.0000 O   0  0  0  0  0  0  0  0  0  0  0  0
   -0.1683   -0.6586    0.0000 C   0  0  0  0  0  0  0  0  0  0  0  0
   -0.3311   -2.1497    0.0000 O   0  0  0  0  0  0  0  0  0  0  0  0
    1.2045   -0.0540    0.0000 C   0  0  0  0  0  0  0  0  0  0  0  0
    1.3674    1.4371    0.0000 N   0  0  0  0  0  0  0  0  0  0  0  0
    2.4145   -0.9406    0.0000 C   0  0  0  0  0  0  0  0  0  0  0  0
    3.7872   -0.3361    0.0000 C   0  0  0  0  0  0  0  0  0  0  0  0
    5.0832   -1.0914    0.0000 C   0  0  0  0  0  0  0  0  0  0  0  0
    6.2020   -0.0922    0.0000 N   0  0  0  0  0  0  0  0  0  0  0  0
    5.5975    1.2806    0.0000 C   0  0  0  0  0  0  0  0  0  0  0  0
    4.1051    1.1298    0.0000 N   0  0  0  0  0  0  0  0  0  0  0  0
   -5.3337   -0.0944    0.0000 C   0  0  0  0  0  0  0  0  0  0  0  0
   -5.4966   -1.5856    0.0000 O   0  0  0  0  0  0  0  0  0  0  0  0
   -6.5436    0.7922    0.0000 O   0  0  0  0  0  0  0  0  0  0  0  0
  2  1  1  1
  2  3  1  0
  3  4  1  0
  4  5  1  0
  5  6  2  0
  5  7  1  0
  7  8  1  1
  7  9  1  0
  9 10  1  0
 10 11  2  0
 11 12  1  0
 12 13  1  0
 13 14  2  0
  2 15  1  0
 15 16  2  0
 15 17  1  0
 14 10  1  0
M  END
>  <rName>  (1735) 
Ser_OHis

>  <PQ_SYMBOL>  (1735) 
Ser_OHis

>  <FULL_NAME>  (1735) 
O-(L-histidyl)-L-serine

>  <IUPAC_CONDENSED>  (1735) 
Ser(O-His)

>  <IUPAC>  (1735) 
(2S)-2-amino-3-((1S)-1-amino-2-(1H-imidazol-4-yl)ethylcarbonyloxy)propanoic acid

>  <TYPE>  (1735) 
Backbone

>  <CLASS>  (1735) 
alpha

>  <ANALOG>  (1735) 
Ser

>  <MOL_WT>  (1735) 
242.235

>  <LOGP>  (1735) 
-1.7653999999999987

>  <TPSA>  (1735) 
144.32

>  <POPULARITY>  (1735) 
2.6

>  <PROTECTED>  (1735) 
TRUE

>  <SMILES>  (1735) 
N[C@@H](COC(=O)[C@@H](N)Cc1(c[nH]cn1))C(=O)O

>  <INCHIKEY>  (1735) 
PAQXXADZWSMFKN-BQBZGAKWSA-N

$$$$
Ser_OLys
     RDKit          2D

 16 15  0  0  0  0  0  0  0  0999 V2000
   -3.8837   -1.9026    0.0000 N   0  0  0  0  0  0  0  0  0  0  0  0
   -3.8944   -0.4027    0.0000 C   0  0  0  0  0  0  0  0  0  0  0  0
   -2.6007    0.3565    0.0000 C   0  0  0  0  0  0  0  0  0  0  0  0
   -1.2963   -0.3842    0.0000 O   0  0  0  0  0  0  0  0  0  0  0  0
   -0.0027    0.3750    0.0000 C   0  0  0  0  0  0  0  0  0  0  0  0
   -0.0133    1.8750    0.0000 O   0  0  0  0  0  0  0  0  0  0  0  0
    1.3017   -0.3658    0.0000 C   0  0  0  0  0  0  0  0  0  0  0  0
    1.3123   -1.8657    0.0000 N   0  0  0  0  0  0  0  0  0  0  0  0
    2.5953    0.3934    0.0000 C   0  0  0  0  0  0  0  0  0  0  0  0
    3.8997   -0.3473    0.0000 C   0  0  0  0  0  0  0  0  0  0  0  0
    5.1934    0.4119    0.0000 C   0  0  0  0  0  0  0  0  0  0  0  0
    6.4977   -0.3289    0.0000 C   0  0  0  0  0  0  0  0  0  0  0  0
    7.7914    0.4303    0.0000 N   0  0  0  0  0  0  0  0  0  0  0  0
   -5.1987    0.3381    0.0000 C   0  0  0  0  0  0  0  0  0  0  0  0
   -5.2093    1.8381    0.0000 O   0  0  0  0  0  0  0  0  0  0  0  0
   -6.4924   -0.4211    0.0000 O   0  0  0  0  0  0  0  0  0  0  0  0
  2  1  1  6
  2  3  1  0
  3  4  1  0
  4  5  1  0
  5  6  2  0
  5  7  1  0
  7  8  1  6
  7  9  1  0
  9 10  1  0
 10 11  1  0
 11 12  1  0
 12 13  1  0
  2 14  1  0
 14 15  2  0
 14 16  1  0
M  END
>  <rName>  (1736) 
Ser_OLys

>  <PQ_SYMBOL>  (1736) 
Ser_OLys

>  <FULL_NAME>  (1736) 
O-(L-lysyl)-L-serine

>  <IUPAC_CONDENSED>  (1736) 
Ser(O-Lys)

>  <IUPAC>  (1736) 
(2S)-2-amino-3-((1S)-1,5-diaminopentylcarbonyloxy)propanoic acid

>  <TYPE>  (1736) 
Backbone

>  <CLASS>  (1736) 
alpha

>  <ANALOG>  (1736) 
Ser

>  <MOL_WT>  (1736) 
233.26799999999994

>  <LOGP>  (1736) 
-1.6021999999999972

>  <TPSA>  (1736) 
141.66

>  <POPULARITY>  (1736) 
3.7

>  <PROTECTED>  (1736) 
TRUE

>  <SMILES>  (1736) 
N[C@@H](COC(=O)[C@@H](N)CCCCN)C(=O)O

>  <INCHIKEY>  (1736) 
CKPSQKYHBPKIFS-BQBZGAKWSA-N

$$$$
Ser_OArg
     RDKit          2D

 18 17  0  0  0  0  0  0  0  0999 V2000
    4.8729    1.8628    0.0000 N   0  0  0  0  0  0  0  0  0  0  0  0
    4.8434    0.3631    0.0000 C   0  0  0  0  0  0  0  0  0  0  0  0
    3.5298   -0.3612    0.0000 C   0  0  0  0  0  0  0  0  0  0  0  0
    2.2458    0.4142    0.0000 O   0  0  0  0  0  0  0  0  0  0  0  0
    0.9323   -0.3101    0.0000 C   0  0  0  0  0  0  0  0  0  0  0  0
    0.9028   -1.8098    0.0000 O   0  0  0  0  0  0  0  0  0  0  0  0
   -0.3518    0.4653    0.0000 C   0  0  0  0  0  0  0  0  0  0  0  0
   -0.3222    1.9651    0.0000 N   0  0  0  0  0  0  0  0  0  0  0  0
   -1.6653   -0.2589    0.0000 C   0  0  0  0  0  0  0  0  0  0  0  0
   -2.9493    0.5165    0.0000 C   0  0  0  0  0  0  0  0  0  0  0  0
   -4.2629   -0.2078    0.0000 C   0  0  0  0  0  0  0  0  0  0  0  0
   -5.5469    0.5676    0.0000 N   0  0  0  0  0  0  0  0  0  0  0  0
   -6.8604   -0.1567    0.0000 C   0  0  0  0  0  0  0  0  0  0  0  0
   -6.8900   -1.6564    0.0000 N   0  0  0  0  0  0  0  0  0  0  0  0
   -8.1445    0.6187    0.0000 N   0  0  0  0  0  0  0  0  0  0  0  0
    6.1274   -0.4123    0.0000 C   0  0  0  0  0  0  0  0  0  0  0  0
    6.0979   -1.9120    0.0000 O   0  0  0  0  0  0  0  0  0  0  0  0
    7.4410    0.3120    0.0000 O   0  0  0  0  0  0  0  0  0  0  0  0
  2  1  1  6
  2  3  1  0
  3  4  1  0
  4  5  1  0
  5  6  2  0
  5  7  1  0
  7  8  1  6
  7  9  1  0
  9 10  1  0
 10 11  1  0
 11 12  1  0
 12 13  1  0
 13 14  2  0
 13 15  1  0
  2 16  1  0
 16 17  2  0
 16 18  1  0
M  END
>  <rName>  (1737) 
Ser_OArg

>  <PQ_SYMBOL>  (1737) 
Ser_OArg

>  <FULL_NAME>  (1737) 
O-(L-arginyl)-L-serine

>  <IUPAC_CONDENSED>  (1737) 
Ser(O-Arg)

>  <IUPAC>  (1737) 
(2S)-2-amino-3-((1S)-1-amino-4-(((amino)(imino)methyl)amino)butylcarbonyloxy)propanoic acid

>  <TYPE>  (1737) 
Backbone

>  <CLASS>  (1737) 
alpha

>  <ANALOG>  (1737) 
Arg

>  <MOL_WT>  (1737) 
261.282

>  <LOGP>  (1737) 
-2.4679299999999973

>  <TPSA>  (1737) 
177.54

>  <POPULARITY>  (1737) 
2.6

>  <PROTECTED>  (1737) 
TRUE

>  <SMILES>  (1737) 
N[C@@H](COC(=O)[C@@H](N)CCCNC(=N)N)C(=O)O

>  <INCHIKEY>  (1737) 
WVJYMQMPIZUASP-WDSKDSINSA-N

$$$$
Thr_OGly
     RDKit          2D

 12 11  0  0  0  0  0  0  0  0999 V2000
   -0.0798   -1.4394    0.0000 N   0  0  0  0  0  0  0  0  0  0  0  0
   -1.0308   -0.2794    0.0000 C   0  0  0  0  0  0  0  0  0  0  0  0
   -0.5018    1.1242    0.0000 C   0  0  0  0  0  0  0  0  0  0  0  0
    0.9783    1.3678    0.0000 O   0  0  0  0  0  0  0  0  0  0  0  0
    1.9294    0.2079    0.0000 C   0  0  0  0  0  0  0  0  0  0  0  0
    1.4003   -1.1957    0.0000 O   0  0  0  0  0  0  0  0  0  0  0  0
    3.4094    0.4515    0.0000 C   0  0  0  0  0  0  0  0  0  0  0  0
    4.3605   -0.7085    0.0000 N   0  0  0  0  0  0  0  0  0  0  0  0
   -1.4528    2.2842    0.0000 C   0  0  0  0  0  0  0  0  0  0  0  0
   -2.5109   -0.5230    0.0000 C   0  0  0  0  0  0  0  0  0  0  0  0
   -3.0400   -1.9266    0.0000 O   0  0  0  0  0  0  0  0  0  0  0  0
   -3.4619    0.6370    0.0000 O   0  0  0  0  0  0  0  0  0  0  0  0
  2  1  1  6
  2  3  1  0
  3  4  1  0
  4  5  1  0
  5  6  2  0
  5  7  1  0
  7  8  1  0
  3  9  1  1
  2 10  1  0
 10 11  2  0
 10 12  1  0
M  END
>  <rName>  (1738) 
Thr_OGly

>  <PQ_SYMBOL>  (1738) 
Thr_OGly

>  <FULL_NAME>  (1738) 
O-glycyl-L-threonine

>  <IUPAC_CONDENSED>  (1738) 
Thr(O-Gly)

>  <IUPAC>  (1738) 
(2S,3R)-2-amino-3-(aminomethylcarbonyloxy)butanoic acid

>  <TYPE>  (1738) 
Backbone

>  <CLASS>  (1738) 
alpha

>  <ANALOG>  (1738) 
Thr

>  <MOL_WT>  (1738) 
176.172

>  <LOGP>  (1738) 
-1.7112999999999987

>  <TPSA>  (1738) 
115.64

>  <POPULARITY>  (1738) 
8.1

>  <PROTECTED>  (1738) 
TRUE

>  <SMILES>  (1738) 
N[C@@H]([C@H](OC(=O)CN)C)C(=O)O

>  <INCHIKEY>  (1738) 
MIYOEFIPPDFVIH-WUJLRWPWSA-N

$$$$
Thr_OLeu
     RDKit          2D

 16 15  0  0  0  0  0  0  0  0999 V2000
    1.4986    1.4984    0.0000 N   0  0  0  0  0  0  0  0  0  0  0  0
    2.4612    0.3480    0.0000 C   0  0  0  0  0  0  0  0  0  0  0  0
    1.9462   -1.0608    0.0000 C   0  0  0  0  0  0  0  0  0  0  0  0
    0.4686   -1.3192    0.0000 O   0  0  0  0  0  0  0  0  0  0  0  0
   -0.4939   -0.1688    0.0000 C   0  0  0  0  0  0  0  0  0  0  0  0
    0.0211    1.2400    0.0000 O   0  0  0  0  0  0  0  0  0  0  0  0
   -1.9715   -0.4272    0.0000 C   0  0  0  0  0  0  0  0  0  0  0  0
   -2.4865   -1.8360    0.0000 N   0  0  0  0  0  0  0  0  0  0  0  0
   -2.9341    0.7232    0.0000 C   0  0  0  0  0  0  0  0  0  0  0  0
   -4.4117    0.4648    0.0000 C   0  0  0  0  0  0  0  0  0  0  0  0
   -5.3742    1.6152    0.0000 C   0  0  0  0  0  0  0  0  0  0  0  0
   -4.9267   -0.9440    0.0000 C   0  0  0  0  0  0  0  0  0  0  0  0
    2.9088   -2.2112    0.0000 C   0  0  0  0  0  0  0  0  0  0  0  0
    3.9388    0.6064    0.0000 C   0  0  0  0  0  0  0  0  0  0  0  0
    4.9014   -0.5440    0.0000 O   0  0  0  0  0  0  0  0  0  0  0  0
    4.4538    2.0152    0.0000 O   0  0  0  0  0  0  0  0  0  0  0  0
  2  1  1  6
  2  3  1  0
  3  4  1  0
  4  5  1  0
  5  6  2  0
  5  7  1  0
  7  8  1  1
  7  9  1  0
  9 10  1  0
 10 11  1  0
 10 12  1  0
  3 13  1  1
  2 14  1  0
 14 15  2  0
 14 16  1  0
M  END
>  <rName>  (1739) 
Thr_OLeu

>  <PQ_SYMBOL>  (1739) 
Thr_OLeu

>  <FULL_NAME>  (1739) 
O-(L-leucyl)-L-threonine

>  <IUPAC_CONDENSED>  (1739) 
Thr(O-Leu)

>  <IUPAC>  (1739) 
(2S,3R)-2-amino-3-((1S)-1-amino-3-methylbutylcarbonyloxy)butanoic acid

>  <TYPE>  (1739) 
Backbone

>  <CLASS>  (1739) 
alpha

>  <ANALOG>  (1739) 
Thr

>  <MOL_WT>  (1739) 
232.27999999999997

>  <LOGP>  (1739) 
-0.2965999999999998

>  <TPSA>  (1739) 
115.64

>  <POPULARITY>  (1739) 
5.3

>  <PROTECTED>  (1739) 
TRUE

>  <SMILES>  (1739) 
N[C@@H]([C@H](OC(=O)[C@@H](N)CC(C)C)C)C(=O)O

>  <INCHIKEY>  (1739) 
DYNITRWDUHBGGK-CSMHCCOUSA-N

$$$$
Thr_OIle
     RDKit          2D

 16 15  0  0  0  0  0  0  0  0999 V2000
    0.9947   -1.3139    0.0000 N   0  0  0  0  0  0  0  0  0  0  0  0
    2.0186   -0.2177    0.0000 C   0  0  0  0  0  0  0  0  0  0  0  0
    1.5811    1.2171    0.0000 C   0  0  0  0  0  0  0  0  0  0  0  0
    0.1198    1.5557    0.0000 O   0  0  0  0  0  0  0  0  0  0  0  0
   -0.9040    0.4595    0.0000 C   0  0  0  0  0  0  0  0  0  0  0  0
   -0.4666   -0.9753    0.0000 O   0  0  0  0  0  0  0  0  0  0  0  0
   -2.3653    0.7980    0.0000 C   0  0  0  0  0  0  0  0  0  0  0  0
   -2.8027    2.2328    0.0000 N   0  0  0  0  0  0  0  0  0  0  0  0
   -3.3891   -0.2982    0.0000 C   0  0  0  0  0  0  0  0  0  0  0  0
   -4.8504    0.0403    0.0000 C   0  0  0  0  0  0  0  0  0  0  0  0
   -2.9517   -1.7330    0.0000 C   0  0  0  0  0  0  0  0  0  0  0  0
   -1.4904   -2.0716    0.0000 C   0  0  0  0  0  0  0  0  0  0  0  0
    2.6050    2.3134    0.0000 C   0  0  0  0  0  0  0  0  0  0  0  0
    3.4799   -0.5562    0.0000 C   0  0  0  0  0  0  0  0  0  0  0  0
    4.5037    0.5400    0.0000 O   0  0  0  0  0  0  0  0  0  0  0  0
    3.9173   -1.9910    0.0000 O   0  0  0  0  0  0  0  0  0  0  0  0
  2  1  1  1
  2  3  1  0
  3  4  1  0
  4  5  1  0
  5  6  2  0
  5  7  1  0
  7  8  1  6
  7  9  1  0
  9 10  1  6
  9 11  1  0
 11 12  1  0
  3 13  1  6
  2 14  1  0
 14 15  2  0
 14 16  1  0
M  END
>  <rName>  (1740) 
Thr_OIle

>  <PQ_SYMBOL>  (1740) 
Thr_OIle

>  <FULL_NAME>  (1740) 
O-(L-isoleucyl)-L-threonine

>  <IUPAC_CONDENSED>  (1740) 
Thr(O-Ile)

>  <IUPAC>  (1740) 
(2S,3R)-2-amino-3-((1S,2S)-1-amino-2-methylbutylcarbonyloxy)butanoic acid

>  <TYPE>  (1740) 
Backbone

>  <CLASS>  (1740) 
alpha

>  <ANALOG>  (1740) 
Thr

>  <MOL_WT>  (1740) 
232.27999999999997

>  <LOGP>  (1740) 
-0.2965999999999998

>  <TPSA>  (1740) 
115.64

>  <POPULARITY>  (1740) 
5.4

>  <PROTECTED>  (1740) 
TRUE

>  <SMILES>  (1740) 
N[C@@H]([C@H](OC(=O)[C@@H](N)[C@@H](C)CC)C)C(=O)O

>  <INCHIKEY>  (1740) 
UUKZOJWIRCCKAB-YWIQKCBGSA-N

$$$$
Thr_OSer
     RDKit          2D

 14 13  0  0  0  0  0  0  0  0999 V2000
   -0.8391   -1.5064    0.0000 N   0  0  0  0  0  0  0  0  0  0  0  0
   -1.7431   -0.3093    0.0000 C   0  0  0  0  0  0  0  0  0  0  0  0
   -1.1584    1.0720    0.0000 C   0  0  0  0  0  0  0  0  0  0  0  0
    0.3303    1.2564    0.0000 O   0  0  0  0  0  0  0  0  0  0  0  0
    1.2342    0.0593    0.0000 C   0  0  0  0  0  0  0  0  0  0  0  0
    0.6495   -1.3220    0.0000 O   0  0  0  0  0  0  0  0  0  0  0  0
    2.7228    0.2437    0.0000 C   0  0  0  0  0  0  0  0  0  0  0  0
    3.3075    1.6250    0.0000 N   0  0  0  0  0  0  0  0  0  0  0  0
    3.6268   -0.9534    0.0000 C   0  0  0  0  0  0  0  0  0  0  0  0
    5.1154   -0.7690    0.0000 O   0  0  0  0  0  0  0  0  0  0  0  0
   -2.0623    2.2691    0.0000 C   0  0  0  0  0  0  0  0  0  0  0  0
   -3.2317   -0.4937    0.0000 C   0  0  0  0  0  0  0  0  0  0  0  0
   -4.1356    0.7034    0.0000 O   0  0  0  0  0  0  0  0  0  0  0  0
   -3.8164   -1.8750    0.0000 O   0  0  0  0  0  0  0  0  0  0  0  0
  2  1  1  6
  2  3  1  0
  3  4  1  0
  4  5  1  0
  5  6  2  0
  5  7  1  0
  7  8  1  1
  7  9  1  0
  9 10  1  0
  3 11  1  1
  2 12  1  0
 12 13  2  0
 12 14  1  0
M  END
>  <rName>  (1741) 
Thr_OSer

>  <PQ_SYMBOL>  (1741) 
Thr_OSer

>  <FULL_NAME>  (1741) 
O-(L-seryl)-L-threonine

>  <IUPAC_CONDENSED>  (1741) 
Thr(O-Ser)

>  <IUPAC>  (1741) 
(2S,3R)-2-amino-3-((1S)-1-amino-2-hydroxyethylcarbonyloxy)butanoic acid

>  <TYPE>  (1741) 
Backbone

>  <CLASS>  (1741) 
alpha

>  <ANALOG>  (1741) 
Thr

>  <MOL_WT>  (1741) 
206.19799999999998

>  <LOGP>  (1741) 
-2.3503999999999987

>  <TPSA>  (1741) 
135.87

>  <POPULARITY>  (1741) 
5

>  <PROTECTED>  (1741) 
TRUE

>  <SMILES>  (1741) 
N[C@@H]([C@H](OC(=O)[C@@H](N)CO)C)C(=O)O

>  <INCHIKEY>  (1741) 
OTAJDSDBSOANJV-WISUUJSJSA-N

$$$$
Thr_OTyr
     RDKit          2D

 20 20  0  0  0  0  0  0  0  0999 V2000
   -2.9777   -1.4975    0.0000 N   0  0  0  0  0  0  0  0  0  0  0  0
   -3.9359   -0.3434    0.0000 C   0  0  0  0  0  0  0  0  0  0  0  0
   -3.4155    1.0635    0.0000 C   0  0  0  0  0  0  0  0  0  0  0  0
   -1.9370    1.3162    0.0000 O   0  0  0  0  0  0  0  0  0  0  0  0
   -0.9788    0.1621    0.0000 C   0  0  0  0  0  0  0  0  0  0  0  0
   -1.4992   -1.2447    0.0000 O   0  0  0  0  0  0  0  0  0  0  0  0
    0.4997    0.4149    0.0000 C   0  0  0  0  0  0  0  0  0  0  0  0
    1.0201    1.8217    0.0000 N   0  0  0  0  0  0  0  0  0  0  0  0
    1.4579   -0.7392    0.0000 C   0  0  0  0  0  0  0  0  0  0  0  0
    2.9365   -0.4864    0.0000 C   0  0  0  0  0  0  0  0  0  0  0  0
    3.4568    0.9204    0.0000 C   0  0  0  0  0  0  0  0  0  0  0  0
    4.9354    1.1732    0.0000 C   0  0  0  0  0  0  0  0  0  0  0  0
    5.8936    0.0191    0.0000 C   0  0  0  0  0  0  0  0  0  0  0  0
    7.3721    0.2719    0.0000 O   0  0  0  0  0  0  0  0  0  0  0  0
    5.3732   -1.3877    0.0000 C   0  0  0  0  0  0  0  0  0  0  0  0
    3.8946   -1.6405    0.0000 C   0  0  0  0  0  0  0  0  0  0  0  0
   -4.3737    2.2175    0.0000 C   0  0  0  0  0  0  0  0  0  0  0  0
   -5.4145   -0.5962    0.0000 C   0  0  0  0  0  0  0  0  0  0  0  0
   -6.3726    0.5579    0.0000 O   0  0  0  0  0  0  0  0  0  0  0  0
   -5.9348   -2.0030    0.0000 O   0  0  0  0  0  0  0  0  0  0  0  0
  2  1  1  6
  2  3  1  0
  3  4  1  0
  4  5  1  0
  5  6  2  0
  5  7  1  0
  7  8  1  1
  7  9  1  0
  9 10  1  0
 10 11  1  0
 11 12  2  0
 12 13  1  0
 13 14  1  0
 13 15  2  0
 15 16  1  0
  3 17  1  1
  2 18  1  0
 18 19  2  0
 18 20  1  0
 16 10  2  0
M  END
>  <rName>  (1742) 
Thr_OTyr

>  <PQ_SYMBOL>  (1742) 
Thr_OTyr

>  <FULL_NAME>  (1742) 
O-(L-tyrosyl)-L-threonine

>  <IUPAC_CONDENSED>  (1742) 
Thr(O-Tyr)

>  <IUPAC>  (1742) 
(2S,3R)-2-amino-3-((1S)-1-amino-2-(4-hydroxyphenyl)ethylcarbonyloxy)butanoic acid

>  <TYPE>  (1742) 
Backbone

>  <CLASS>  (1742) 
alpha

>  <ANALOG>  (1742) 
Thr

>  <MOL_WT>  (1742) 
282.296

>  <LOGP>  (1742) 
-0.39439999999999925

>  <TPSA>  (1742) 
135.87

>  <POPULARITY>  (1742) 
5

>  <PROTECTED>  (1742) 
TRUE

>  <SMILES>  (1742) 
N[C@@H]([C@H](OC(=O)[C@@H](N)Cc1(ccc(O)cc1))C)C(=O)O

>  <INCHIKEY>  (1742) 
LJCSZIJLALGPLZ-GGVZMXCHSA-N

$$$$
Phe_25diF
     RDKit          2D

 14 14  0  0  0  0  0  0  0  0999 V2000
   -1.4552    1.7882    0.0000 N   0  0  0  0  0  0  0  0  0  0  0  0
   -1.9325    0.3661    0.0000 C   0  0  0  0  0  0  0  0  0  0  0  0
   -0.9397   -0.7583    0.0000 C   0  0  0  0  0  0  0  0  0  0  0  0
    0.5305   -0.4606    0.0000 C   0  0  0  0  0  0  0  0  0  0  0  0
    1.0078    0.9614    0.0000 C   0  0  0  0  0  0  0  0  0  0  0  0
    2.4780    1.2591    0.0000 C   0  0  0  0  0  0  0  0  0  0  0  0
    2.9553    2.6811    0.0000 F   0  0  0  0  0  0  0  0  0  0  0  0
    3.4709    0.1347    0.0000 C   0  0  0  0  0  0  0  0  0  0  0  0
    2.9935   -1.2874    0.0000 C   0  0  0  0  0  0  0  0  0  0  0  0
    1.5234   -1.5850    0.0000 C   0  0  0  0  0  0  0  0  0  0  0  0
    1.0461   -3.0070    0.0000 F   0  0  0  0  0  0  0  0  0  0  0  0
   -3.4027    0.0685    0.0000 C   0  0  0  0  0  0  0  0  0  0  0  0
   -3.8800   -1.3536    0.0000 O   0  0  0  0  0  0  0  0  0  0  0  0
   -4.3955    1.1929    0.0000 O   0  0  0  0  0  0  0  0  0  0  0  0
  2  1  1  1
  2  3  1  0
  3  4  1  0
  4  5  1  0
  5  6  2  0
  6  7  1  0
  6  8  1  0
  8  9  2  0
  9 10  1  0
 10 11  1  0
  2 12  1  0
 12 13  2  0
 12 14  1  0
 10  4  2  0
M  END
>  <rName>  (1743) 
Phe_25diF

>  <PQ_SYMBOL>  (1743) 
Phe_25diF

>  <FULL_NAME>  (1743) 
(S)-2-amino-3-(2,5-difluorophenyl)propanoic acid

>  <IUPAC_CONDENSED>  (1743) 
Phe(2,5-diF)

>  <IUPAC>  (1743) 
(2S)-2-amino-3-(2,5-difluorophenyl)propanoic acid

>  <TYPE>  (1743) 
Backbone

>  <CLASS>  (1743) 
alpha

>  <ANALOG>  (1743) 
Phe

>  <MOL_WT>  (1743) 
201.17199999999997

>  <LOGP>  (1743) 
0.9192

>  <TPSA>  (1743) 
63.32000000000001

>  <POPULARITY>  (1743) 
6.7

>  <PROTECTED>  (1743) 
TRUE

>  <SMILES>  (1743) 
N[C@@H](Cc1(cc(F)ccc1F))C(=O)O

>  <INCHIKEY>  (1743) 
YHYQITHAFYELNW-QMMMGPOBSA-N

$$$$
Glu-OSu
     RDKit          2D

 17 17  0  0  0  0  0  0  0  0999 V2000
   -1.4054   -2.2591    0.0000 N   0  0  0  0  0  0  0  0  0  0  0  0
   -1.3265   -0.7612    0.0000 C   0  0  0  0  0  0  0  0  0  0  0  0
    0.0102   -0.0805    0.0000 C   0  0  0  0  0  0  0  0  0  0  0  0
    0.0891    1.4174    0.0000 O   0  0  0  0  0  0  0  0  0  0  0  0
    1.2680   -0.8978    0.0000 O   0  0  0  0  0  0  0  0  0  0  0  0
    2.6047   -0.2172    0.0000 N   0  0  0  0  0  0  0  0  0  0  0  0
    3.9410   -0.8986    0.0000 C   0  0  0  0  0  0  0  0  0  0  0  0
    4.1753   -2.3802    0.0000 O   0  0  0  0  0  0  0  0  0  0  0  0
    5.0020    0.1618    0.0000 C   0  0  0  0  0  0  0  0  0  0  0  0
    4.3214    1.4985    0.0000 C   0  0  0  0  0  0  0  0  0  0  0  0
    2.8398    1.2643    0.0000 C   0  0  0  0  0  0  0  0  0  0  0  0
    1.7794    2.3252    0.0000 O   0  0  0  0  0  0  0  0  0  0  0  0
   -2.5842    0.0561    0.0000 C   0  0  0  0  0  0  0  0  0  0  0  0
   -3.9209   -0.6245    0.0000 C   0  0  0  0  0  0  0  0  0  0  0  0
   -5.1787    0.1928    0.0000 C   0  0  0  0  0  0  0  0  0  0  0  0
   -5.0998    1.6907    0.0000 O   0  0  0  0  0  0  0  0  0  0  0  0
   -6.5154   -0.4878    0.0000 O   0  0  0  0  0  0  0  0  0  0  0  0
  2  1  1  1
  2  3  1  0
  3  4  2  0
  3  5  1  0
  5  6  1  0
  6  7  1  0
  7  8  2  0
  7  9  1  0
  9 10  1  0
 10 11  1  0
 11 12  2  0
  2 13  1  0
 13 14  1  0
 14 15  1  0
 15 16  2  0
 15 17  1  0
 11  6  1  0
M  END
>  <rName>  (1744) 
Glu-OSu

>  <PQ_SYMBOL>  (1744) 
Glu-OSu

>  <FULL_NAME>  (1744) 
(S)-4-amino-5-((2,5-dioxopyrrolidin-1-yl)oxy)-5-oxopentanoic acid

>  <IUPAC_CONDENSED>  (1744) 
Glu-OSu

>  <IUPAC>  (1744) 
(4S)-4-amino-4-(((2,5-dioxopyrrolidin-1-yl)oxy)carbonyl)butanoic acid

>  <TYPE>  (1744) 
Backbone

>  <CLASS>  (1744) 
gamma

>  <ANALOG>  (1744) 
X

>  <MOL_WT>  (1744) 
244.20299999999995

>  <LOGP>  (1744) 
-1.2143000000000006

>  <TPSA>  (1744) 
127.00000000000001

>  <POPULARITY>  (1744) 
3.1

>  <PROTECTED>  (1744) 
TRUE

>  <SMILES>  (1744) 
N[C@H](C(=O)ON1(C(=O)CCC1=O))CCC(=O)O

>  <INCHIKEY>  (1744) 
RJJBAKLTINWYFX-YFKPBYRVSA-N

$$$$
NMe-Val_3Me
     RDKit          2D

 10  9  0  0  0  0  0  0  0  0999 V2000
   -0.8351    1.5945    0.0000 N   0  0  0  0  0  0  0  0  0  0  0  0
   -2.3338    1.6562    0.0000 C   0  0  0  0  0  0  0  0  0  0  0  0
   -0.1392    0.2658    0.0000 C   0  0  0  0  0  0  0  0  0  0  0  0
    1.3595    0.2041    0.0000 C   0  0  0  0  0  0  0  0  0  0  0  0
    1.2978   -1.2947    0.0000 C   0  0  0  0  0  0  0  0  0  0  0  0
    1.4212    1.7028    0.0000 C   0  0  0  0  0  0  0  0  0  0  0  0
    2.8583    0.1424    0.0000 C   0  0  0  0  0  0  0  0  0  0  0  0
   -0.9420   -1.0013    0.0000 C   0  0  0  0  0  0  0  0  0  0  0  0
   -2.4407   -0.9396    0.0000 O   0  0  0  0  0  0  0  0  0  0  0  0
   -0.2461   -2.3301    0.0000 O   0  0  0  0  0  0  0  0  0  0  0  0
  1  2  1  0
  3  1  1  1
  3  4  1  0
  4  5  1  0
  4  6  1  0
  4  7  1  0
  3  8  1  0
  8  9  2  0
  8 10  1  0
M  END
>  <rName>  (1745) 
NMe-Val_3Me

>  <PQ_SYMBOL>  (1745) 
NMe-Val_3Me

>  <FULL_NAME>  (1745) 
(S)-3,3-dimethyl-2-(methylamino)butanoic acid

>  <IUPAC_CONDENSED>  (1745) 
Me-Val(3-Me)

>  <IUPAC>  (1745) 
(2S)-3,3-dimethyl-2-(methylamino)butanoic acid

>  <TYPE>  (1745) 
Backbone

>  <CLASS>  (1745) 
alpha

>  <ANALOG>  (1745) 
Val

>  <MOL_WT>  (1745) 
145.202

>  <LOGP>  (1745) 
0.7051000000000001

>  <TPSA>  (1745) 
49.33

>  <POPULARITY>  (1745) 
14.2

>  <PROTECTED>  (1745) 
TRUE

>  <SMILES>  (1745) 
N(C)[C@@H](C(C)(C)C)C(=O)O

>  <INCHIKEY>  (1745) 
KWWFNGCKGYUCLC-RXMQYKEDSA-N

$$$$
NMe-D-Cha
     RDKit          2D

 13 13  0  0  0  0  0  0  0  0999 V2000
   -1.1846    1.3730    0.0000 N   0  0  0  0  0  0  0  0  0  0  0  0
   -2.3388    2.3311    0.0000 C   0  0  0  0  0  0  0  0  0  0  0  0
   -1.4373   -0.1056    0.0000 C   0  0  0  0  0  0  0  0  0  0  0  0
   -0.2831   -1.0637    0.0000 C   0  0  0  0  0  0  0  0  0  0  0  0
    1.1237   -0.5432    0.0000 C   0  0  0  0  0  0  0  0  0  0  0  0
    1.3763    0.9354    0.0000 C   0  0  0  0  0  0  0  0  0  0  0  0
    2.7831    1.4559    0.0000 C   0  0  0  0  0  0  0  0  0  0  0  0
    3.9373    0.4978    0.0000 C   0  0  0  0  0  0  0  0  0  0  0  0
    3.6846   -0.9808    0.0000 C   0  0  0  0  0  0  0  0  0  0  0  0
    2.2778   -1.5013    0.0000 C   0  0  0  0  0  0  0  0  0  0  0  0
   -2.8441   -0.6260    0.0000 C   0  0  0  0  0  0  0  0  0  0  0  0
   -3.0967   -2.1046    0.0000 O   0  0  0  0  0  0  0  0  0  0  0  0
   -3.9982    0.3321    0.0000 O   0  0  0  0  0  0  0  0  0  0  0  0
  1  2  1  0
  1  3  1  0
  3  4  1  6
  4  5  1  0
  5  6  1  0
  6  7  1  0
  7  8  1  0
  8  9  1  0
  9 10  1  0
  3 11  1  0
 11 12  2  0
 11 13  1  0
 10  5  1  0
M  END
>  <rName>  (1746) 
NMe-D-Cha

>  <PQ_SYMBOL>  (1746) 
NMe-D-Cha

>  <FULL_NAME>  (1746) 
(R)-3-cyclohexyl-2-(methylamino)propanoic acid

>  <IUPAC_CONDENSED>  (1746) 
Me-D-Cha

>  <IUPAC>  (1746) 
(2R)-3-cyclohexyl-2-(methylamino)propanoic acid

>  <TYPE>  (1746) 
Backbone

>  <CLASS>  (1746) 
alpha

>  <ANALOG>  (1746) 
Ala

>  <MOL_WT>  (1746) 
185.267

>  <LOGP>  (1746) 
1.6294

>  <TPSA>  (1746) 
49.33

>  <POPULARITY>  (1746) 
10

>  <PROTECTED>  (1746) 
TRUE

>  <SMILES>  (1746) 
N(C)[C@H](CC1(CCCCC1))C(=O)O

>  <INCHIKEY>  (1746) 
GBMDYACPQYNUGA-SECBINFHSA-N

$$$$
hPhe_CONH2
     RDKit          2D

 16 17  0  0  0  0  0  0  0  0999 V2000
   -2.5941   -1.4623    0.0000 N   0  0  0  0  0  0  0  0  0  0  0  0
   -2.4986    0.0347    0.0000 C   0  0  0  0  0  0  0  0  0  0  0  0
   -1.1544    0.7005    0.0000 C   0  0  0  0  0  0  0  0  0  0  0  0
    0.0942   -0.1307    0.0000 C   0  0  0  0  0  0  0  0  0  0  0  0
    0.1557   -1.6294    0.0000 C   0  0  0  0  0  0  0  0  0  0  0  0
   -1.0206   -2.5601    0.0000 O   0  0  0  0  0  0  0  0  0  0  0  0
    1.6001   -2.0341    0.0000 N   0  0  0  0  0  0  0  0  0  0  0  0
    2.4313   -0.7854    0.0000 C   0  0  0  0  0  0  0  0  0  0  0  0
    3.9154   -0.5676    0.0000 C   0  0  0  0  0  0  0  0  0  0  0  0
    4.4688    0.8266    0.0000 C   0  0  0  0  0  0  0  0  0  0  0  0
    3.5381    2.0030    0.0000 C   0  0  0  0  0  0  0  0  0  0  0  0
    2.0540    1.7851    0.0000 C   0  0  0  0  0  0  0  0  0  0  0  0
    1.5006    0.3909    0.0000 C   0  0  0  0  0  0  0  0  0  0  0  0
   -3.7473    0.8659    0.0000 C   0  0  0  0  0  0  0  0  0  0  0  0
   -3.6518    2.3628    0.0000 O   0  0  0  0  0  0  0  0  0  0  0  0
   -5.0914    0.2001    0.0000 O   0  0  0  0  0  0  0  0  0  0  0  0
  2  1  1  6
  2  3  1  0
  3  4  1  0
  4  5  1  0
  5  6  2  0
  5  7  1  0
  7  8  1  0
  8  9  2  0
  9 10  1  0
 10 11  2  0
 11 12  1  0
 12 13  2  0
  2 14  1  0
 14 15  2  0
 14 16  1  0
 13  8  1  0
 13  4  1  0
M  END
>  <rName>  (1747) 
hPhe_CONH2

>  <PQ_SYMBOL>  (1747) 
hPhe_CONH2

>  <FULL_NAME>  (1747) 
(2S)-2-amino-3-(2-oxoindolin-3-yl)propanoic acid

>  <IUPAC_CONDENSED>  (1747) 
hPhe(CONH2)

>  <IUPAC>  (1747) 
(2S)-2-amino-3-(2-oxoindolin-3-yl)propanoic acid

>  <TYPE>  (1747) 
Backbone

>  <CLASS>  (1747) 
alpha

>  <ANALOG>  (1747) 
Phe

>  <MOL_WT>  (1747) 
220.228

>  <LOGP>  (1747) 
0.5242999999999998

>  <TPSA>  (1747) 
92.42

>  <POPULARITY>  (1747) 
6.5

>  <PROTECTED>  (1747) 
TRUE

>  <SMILES>  (1747) 
N[C@@H](CC2(C(=O)Nc1(ccccc12)))C(=O)O

>  <INCHIKEY>  (1747) 
SFJCKRJKEWLPTL-MQWKRIRWSA-N

$$$$
Gly_allyl_allyl
     RDKit          2D

 11 10  0  0  0  0  0  0  0  0999 V2000
   -0.0000    1.4367    0.0000 N   0  0  0  0  0  0  0  0  0  0  0  0
   -0.0000   -0.0633    0.0000 C   0  0  0  0  0  0  0  0  0  0  0  0
   -1.5000   -0.0633    0.0000 C   0  0  0  0  0  0  0  0  0  0  0  0
   -2.2500    1.2358    0.0000 C   0  0  0  0  0  0  0  0  0  0  0  0
   -3.7500    1.2358    0.0000 C   0  0  0  0  0  0  0  0  0  0  0  0
    1.5000   -0.0633    0.0000 C   0  0  0  0  0  0  0  0  0  0  0  0
    2.2500    1.2358    0.0000 C   0  0  0  0  0  0  0  0  0  0  0  0
    3.7500    1.2358    0.0000 C   0  0  0  0  0  0  0  0  0  0  0  0
    0.0000   -1.5633    0.0000 C   0  0  0  0  0  0  0  0  0  0  0  0
   -1.2990   -2.3133    0.0000 O   0  0  0  0  0  0  0  0  0  0  0  0
    1.2990   -2.3133    0.0000 O   0  0  0  0  0  0  0  0  0  0  0  0
  1  2  1  0
  2  3  1  0
  3  4  1  0
  4  5  2  0
  2  6  1  0
  6  7  1  0
  7  8  2  0
  2  9  1  0
  9 10  2  0
  9 11  1  0
M  END
>  <rName>  (1748) 
Gly_allyl_allyl

>  <PQ_SYMBOL>  (1748) 
Gly_allyl_allyl

>  <FULL_NAME>  (1748) 
2-allyl-2-aminopent-4-enoic acid

>  <IUPAC_CONDENSED>  (1748) 
Gly(allyl,allyl)

>  <IUPAC>  (1748) 
2-amino-2-(prop-2-en-1-yl)pent-4-enoic acid

>  <TYPE>  (1748) 
Backbone

>  <CLASS>  (1748) 
alpha

>  <ANALOG>  (1748) 
Leu

>  <MOL_WT>  (1748) 
155.197

>  <LOGP>  (1748) 
0.9207000000000001

>  <TPSA>  (1748) 
63.32000000000001

>  <POPULARITY>  (1748) 
3.9

>  <PROTECTED>  (1748) 
TRUE

>  <SMILES>  (1748) 
NC(CC=C)(CC=C)C(=O)O

>  <INCHIKEY>  (1748) 
VRYCIOSKXNZGLD-UHFFFAOYSA-N

$$$$
Phe_4Oallyl
     RDKit          2D

 16 16  0  0  0  0  0  0  0  0999 V2000
   -3.0307    1.6397    0.0000 N   0  0  0  0  0  0  0  0  0  0  0  0
   -3.3793    0.1807    0.0000 C   0  0  0  0  0  0  0  0  0  0  0  0
   -2.2900   -0.8506    0.0000 C   0  0  0  0  0  0  0  0  0  0  0  0
   -0.8523   -0.4229    0.0000 C   0  0  0  0  0  0  0  0  0  0  0  0
   -0.5038    1.0360    0.0000 C   0  0  0  0  0  0  0  0  0  0  0  0
    0.9340    1.4637    0.0000 C   0  0  0  0  0  0  0  0  0  0  0  0
    2.0232    0.4324    0.0000 C   0  0  0  0  0  0  0  0  0  0  0  0
    3.4609    0.8600    0.0000 O   0  0  0  0  0  0  0  0  0  0  0  0
    4.5502   -0.1713    0.0000 C   0  0  0  0  0  0  0  0  0  0  0  0
    5.9879    0.2564    0.0000 C   0  0  0  0  0  0  0  0  0  0  0  0
    7.0771   -0.7749    0.0000 C   0  0  0  0  0  0  0  0  0  0  0  0
    1.6747   -1.0266    0.0000 C   0  0  0  0  0  0  0  0  0  0  0  0
    0.2369   -1.4542    0.0000 C   0  0  0  0  0  0  0  0  0  0  0  0
   -4.8170   -0.2469    0.0000 C   0  0  0  0  0  0  0  0  0  0  0  0
   -5.1655   -1.7059    0.0000 O   0  0  0  0  0  0  0  0  0  0  0  0
   -5.9062    0.7844    0.0000 O   0  0  0  0  0  0  0  0  0  0  0  0
  2  1  1  1
  2  3  1  0
  3  4  1  0
  4  5  1  0
  5  6  2  0
  6  7  1  0
  7  8  1  0
  8  9  1  0
  9 10  1  0
 10 11  2  0
  7 12  2  0
 12 13  1  0
  2 14  1  0
 14 15  2  0
 14 16  1  0
 13  4  2  0
M  END
>  <rName>  (1749) 
Phe_4Oallyl

>  <PQ_SYMBOL>  (1749) 
Phe_4Oallyl

>  <FULL_NAME>  (1749) 
(S)-3-(4-(allyloxy)phenyl)-2-aminopropanoic acid

>  <IUPAC_CONDENSED>  (1749) 
Tyr(allyl)

>  <IUPAC>  (1749) 
(2S)-2-amino-3-(4-((prop-2-en-1-yl)oxy)phenyl)propanoic acid

>  <TYPE>  (1749) 
Backbone

>  <CLASS>  (1749) 
alpha

>  <ANALOG>  (1749) 
Tyr

>  <MOL_WT>  (1749) 
221.25599999999997

>  <LOGP>  (1749) 
1.2058000000000002

>  <TPSA>  (1749) 
72.55

>  <POPULARITY>  (1749) 
6.5

>  <PROTECTED>  (1749) 
TRUE

>  <SMILES>  (1749) 
N[C@@H](Cc1(ccc(OCC=C)cc1))C(=O)O

>  <INCHIKEY>  (1749) 
PHUOJEKTSKQBNT-NSHDSACASA-N

$$$$
Cys_Npys
     RDKit          2D

 17 17  0  0  0  0  0  0  0  0999 V2000
   -3.5928    1.8946    0.0000 N   0  0  0  0  0  0  0  0  0  0  0  0
   -3.5917    0.3946    0.0000 C   0  0  0  0  0  0  0  0  0  0  0  0
   -2.2922   -0.3545    0.0000 C   0  0  0  0  0  0  0  0  0  0  0  0
   -0.9937    0.3964    0.0000 S   0  0  0  0  0  0  0  0  0  0  0  0
    0.3059   -0.3527    0.0000 S   0  0  0  0  0  0  0  0  0  0  0  0
    1.6044    0.3982    0.0000 C   0  0  0  0  0  0  0  0  0  0  0  0
    1.6034    1.8982    0.0000 N   0  0  0  0  0  0  0  0  0  0  0  0
    2.9019    2.6491    0.0000 C   0  0  0  0  0  0  0  0  0  0  0  0
    4.2014    1.9000    0.0000 C   0  0  0  0  0  0  0  0  0  0  0  0
    4.2025    0.4000    0.0000 C   0  0  0  0  0  0  0  0  0  0  0  0
    2.9040   -0.3509    0.0000 C   0  0  0  0  0  0  0  0  0  0  0  0
    2.9050   -1.8509    0.0000 N   0  0  0  0  0  0  0  0  0  0  0  0
    4.2046   -2.6000    0.0000 O   0  0  0  0  0  0  0  0  0  0  0  0
    1.6065   -2.6018    0.0000 O   0  0  0  0  0  0  0  0  0  0  0  0
   -4.8902   -0.3563    0.0000 C   0  0  0  0  0  0  0  0  0  0  0  0
   -4.8892   -1.8563    0.0000 O   0  0  0  0  0  0  0  0  0  0  0  0
   -6.1898    0.3928    0.0000 O   0  0  0  0  0  0  0  0  0  0  0  0
  2  1  1  1
  2  3  1  0
  3  4  1  0
  4  5  1  0
  5  6  1  0
  6  7  2  0
  7  8  1  0
  8  9  2  0
  9 10  1  0
 10 11  2  0
 11 12  1  0
 12 13  2  0
 12 14  1  0
  2 15  1  0
 15 16  2  0
 15 17  1  0
 11  6  1  0
M  CHG  2  12   1  14  -1
M  END
>  <rName>  (1750) 
Cys_Npys

>  <PQ_SYMBOL>  (1750) 
Cys_Npys

>  <FULL_NAME>  (1750) 
S-((3-nitropyridin-2-yl)thio)-L-cysteine

>  <IUPAC_CONDENSED>  (1750) 
Cys(Npys)

>  <IUPAC>  (1750) 
(2R)-2-amino-3-(((3-nitropyridin-2-yl)sulfanyl)sulfanyl)propanoic acid

>  <TYPE>  (1750) 
Backbone

>  <CLASS>  (1750) 
alpha

>  <ANALOG>  (1750) 
Cys

>  <MOL_WT>  (1750) 
275.31100000000004

>  <LOGP>  (1750) 
1.142

>  <TPSA>  (1750) 
119.35000000000001

>  <POPULARITY>  (1750) 
5

>  <PROTECTED>  (1750) 
TRUE

>  <SMILES>  (1750) 
N[C@@H](CSSc1(ncccc1[N+](=O)[O-]))C(=O)O

>  <INCHIKEY>  (1750) 
SOGTULYCPNFAGT-YFKPBYRVSA-N

$$$$
bAla_3Ph_4F
     RDKit          2D

 13 13  0  0  0  0  0  0  0  0999 V2000
   -1.5598   -1.8792    0.0000 N   0  0  0  0  0  0  0  0  0  0  0  0
   -1.0324   -0.4750    0.0000 C   0  0  0  0  0  0  0  0  0  0  0  0
    0.4474   -0.2297    0.0000 C   0  0  0  0  0  0  0  0  0  0  0  0
    0.9749    1.1745    0.0000 C   0  0  0  0  0  0  0  0  0  0  0  0
    2.4547    1.4199    0.0000 C   0  0  0  0  0  0  0  0  0  0  0  0
    3.4070    0.2610    0.0000 C   0  0  0  0  0  0  0  0  0  0  0  0
    4.8868    0.5063    0.0000 F   0  0  0  0  0  0  0  0  0  0  0  0
    2.8796   -1.1432    0.0000 C   0  0  0  0  0  0  0  0  0  0  0  0
    1.3998   -1.3886    0.0000 C   0  0  0  0  0  0  0  0  0  0  0  0
   -1.9847    0.6838    0.0000 C   0  0  0  0  0  0  0  0  0  0  0  0
   -3.4645    0.4385    0.0000 C   0  0  0  0  0  0  0  0  0  0  0  0
   -3.9920   -0.9657    0.0000 O   0  0  0  0  0  0  0  0  0  0  0  0
   -4.4169    1.5974    0.0000 O   0  0  0  0  0  0  0  0  0  0  0  0
  1  2  1  0
  2  3  1  0
  3  4  1  0
  4  5  2  0
  5  6  1  0
  6  7  1  0
  6  8  2  0
  8  9  1  0
  2 10  1  0
 10 11  1  0
 11 12  2  0
 11 13  1  0
  9  3  2  0
M  END
>  <rName>  (1751) 
bAla_3Ph_4F

>  <PQ_SYMBOL>  (1751) 
bAla_3Ph_4F

>  <FULL_NAME>  (1751) 
3-amino-3-(4-fluorophenyl)propanoic acid

>  <IUPAC_CONDENSED>  (1751) 
bAla(3-Ph(4-F))

>  <IUPAC>  (1751) 
3-amino-3-(4-fluorophenyl)propanoic acid

>  <TYPE>  (1751) 
Backbone

>  <CLASS>  (1751) 
beta

>  <ANALOG>  (1751) 
X

>  <MOL_WT>  (1751) 
183.18199999999996

>  <LOGP>  (1751) 
1.3002000000000002

>  <TPSA>  (1751) 
63.32000000000001

>  <POPULARITY>  (1751) 
10.3

>  <PROTECTED>  (1751) 
TRUE

>  <SMILES>  (1751) 
NC(c1(ccc(F)cc1))CC(=O)O

>  <INCHIKEY>  (1751) 
CPGFMWPQXUXQRX-UHFFFAOYSA-N

$$$$
D-Asp-NH2
     RDKit          2D

  9  8  0  0  0  0  0  0  0  0999 V2000
   -0.2826   -1.7410    0.0000 N   0  0  0  0  0  0  0  0  0  0  0  0
   -0.5402   -0.2633    0.0000 C   0  0  0  0  0  0  0  0  0  0  0  0
   -1.9487    0.2525    0.0000 C   0  0  0  0  0  0  0  0  0  0  0  0
   -2.2062    1.7302    0.0000 O   0  0  0  0  0  0  0  0  0  0  0  0
   -3.0997   -0.7094    0.0000 N   0  0  0  0  0  0  0  0  0  0  0  0
    0.6108    0.6986    0.0000 C   0  0  0  0  0  0  0  0  0  0  0  0
    2.0193    0.1828    0.0000 C   0  0  0  0  0  0  0  0  0  0  0  0
    2.2769   -1.2950    0.0000 O   0  0  0  0  0  0  0  0  0  0  0  0
    3.1703    1.1447    0.0000 O   0  0  0  0  0  0  0  0  0  0  0  0
  2  1  1  1
  2  3  1  0
  3  4  2  0
  3  5  1  0
  2  6  1  0
  6  7  1  0
  7  8  2  0
  7  9  1  0
M  END
>  <rName>  (1752) 
D-Asp-NH2

>  <PQ_SYMBOL>  (1752) 
D-Asp-NH2

>  <FULL_NAME>  (1752) 
(R)-3,4-diamino-4-oxobutanoic acid

>  <IUPAC_CONDENSED>  (1752) 
D-Asp-NH2

>  <IUPAC>  (1752) 
(3R)-3-amino-3-carbamoylpropanoic acid

>  <TYPE>  (1752) 
Backbone

>  <CLASS>  (1752) 
beta

>  <ANALOG>  (1752) 
X

>  <MOL_WT>  (1752) 
132.119

>  <LOGP>  (1752) 
-1.7263000000000002

>  <TPSA>  (1752) 
106.41000000000001

>  <POPULARITY>  (1752) 
12.4

>  <PROTECTED>  (1752) 
TRUE

>  <SMILES>  (1752) 
N[C@@H](C(=O)N)CC(=O)O

>  <INCHIKEY>  (1752) 
PMLJIHNCYNOQEQ-UWTATZPHSA-N

$$$$
D-imidazolidine-2-CO2H
     RDKit          2D

  8  8  0  0  0  0  0  0  0  0999 V2000
   -0.8342   -1.2135    0.0000 N   0  0  0  0  0  0  0  0  0  0  0  0
    0.0475   -0.0000    0.0000 C   0  0  0  0  0  0  0  0  0  0  0  0
   -0.8342    1.2135    0.0000 N   0  0  0  0  0  0  0  0  0  0  0  0
   -2.2608    0.7500    0.0000 C   0  0  0  0  0  0  0  0  0  0  0  0
   -2.2608   -0.7500    0.0000 C   0  0  0  0  0  0  0  0  0  0  0  0
    1.5475    0.0000    0.0000 C   0  0  0  0  0  0  0  0  0  0  0  0
    2.2975    1.2990    0.0000 O   0  0  0  0  0  0  0  0  0  0  0  0
    2.2975   -1.2990    0.0000 O   0  0  0  0  0  0  0  0  0  0  0  0
  1  2  1  0
  2  3  1  0
  3  4  1  0
  4  5  1  0
  2  6  1  0
  6  7  2  0
  6  8  1  0
  5  1  1  0
M  END
>  <rName>  (1753) 
D-imidazolidine-2-CO2H

>  <PQ_SYMBOL>  (1753) 
D-imidazolidine-2-CO2H

>  <FULL_NAME>  (1753) 
D-imidazolidine-2-carboxylic acid

>  <IUPAC_CONDENSED>  (1753) 
D-imidazolidine-2-CO2H

>  <IUPAC>  (1753) 
imidazolidine-2-carboxylic acid

>  <TYPE>  (1753) 
Backbone

>  <CLASS>  (1753) 
alpha

>  <ANALOG>  (1753) 
Pro

>  <MOL_WT>  (1753) 
116.11999999999999

>  <LOGP>  (1753) 
-1.4100999999999997

>  <TPSA>  (1753) 
61.36

>  <POPULARITY>  (1753) 
4.3

>  <PROTECTED>  (1753) 
FALSE

>  <SMILES>  (1753) 
N1C(NCC1)C(=O)O

>  <INCHIKEY>  (1753) 
DKXKVWKTEATBQK-UHFFFAOYSA-N

$$$$
D-Phe_4Oallyl
     RDKit          2D

 16 16  0  0  0  0  0  0  0  0999 V2000
   -3.0307    1.6397    0.0000 N   0  0  0  0  0  0  0  0  0  0  0  0
   -3.3793    0.1807    0.0000 C   0  0  0  0  0  0  0  0  0  0  0  0
   -2.2900   -0.8506    0.0000 C   0  0  0  0  0  0  0  0  0  0  0  0
   -0.8523   -0.4229    0.0000 C   0  0  0  0  0  0  0  0  0  0  0  0
   -0.5038    1.0360    0.0000 C   0  0  0  0  0  0  0  0  0  0  0  0
    0.9340    1.4637    0.0000 C   0  0  0  0  0  0  0  0  0  0  0  0
    2.0232    0.4324    0.0000 C   0  0  0  0  0  0  0  0  0  0  0  0
    3.4609    0.8600    0.0000 O   0  0  0  0  0  0  0  0  0  0  0  0
    4.5502   -0.1713    0.0000 C   0  0  0  0  0  0  0  0  0  0  0  0
    5.9879    0.2564    0.0000 C   0  0  0  0  0  0  0  0  0  0  0  0
    7.0771   -0.7749    0.0000 C   0  0  0  0  0  0  0  0  0  0  0  0
    1.6747   -1.0266    0.0000 C   0  0  0  0  0  0  0  0  0  0  0  0
    0.2369   -1.4542    0.0000 C   0  0  0  0  0  0  0  0  0  0  0  0
   -4.8170   -0.2469    0.0000 C   0  0  0  0  0  0  0  0  0  0  0  0
   -5.1655   -1.7059    0.0000 O   0  0  0  0  0  0  0  0  0  0  0  0
   -5.9062    0.7844    0.0000 O   0  0  0  0  0  0  0  0  0  0  0  0
  2  1  1  6
  2  3  1  0
  3  4  1  0
  4  5  1  0
  5  6  2  0
  6  7  1  0
  7  8  1  0
  8  9  1  0
  9 10  1  0
 10 11  2  0
  7 12  2  0
 12 13  1  0
  2 14  1  0
 14 15  2  0
 14 16  1  0
 13  4  2  0
M  END
>  <rName>  (1754) 
D-Phe_4Oallyl

>  <PQ_SYMBOL>  (1754) 
D-Phe_4Oallyl

>  <FULL_NAME>  (1754) 
(R)-3-(4-(allyloxy)phenyl)-2-aminopropanoic acid

>  <IUPAC_CONDENSED>  (1754) 
D-Tyr(allyl)

>  <IUPAC>  (1754) 
(2R)-2-amino-3-(4-((prop-2-en-1-yl)oxy)phenyl)propanoic acid

>  <TYPE>  (1754) 
Backbone

>  <CLASS>  (1754) 
alpha

>  <ANALOG>  (1754) 
Tyr

>  <MOL_WT>  (1754) 
221.25599999999997

>  <LOGP>  (1754) 
1.2058000000000002

>  <TPSA>  (1754) 
72.55

>  <POPULARITY>  (1754) 
5

>  <PROTECTED>  (1754) 
TRUE

>  <SMILES>  (1754) 
N[C@H](Cc1(ccc(OCC=C)cc1))C(=O)O

>  <INCHIKEY>  (1754) 
PHUOJEKTSKQBNT-LLVKDONJSA-N

$$$$
MeO-bAla
     RDKit          2D

  8  7  0  0  0  0  0  0  0  0999 V2000
   -1.6672   -0.4165    0.0000 N   0  0  0  0  0  0  0  0  0  0  0  0
   -2.8948    0.4455    0.0000 O   0  0  0  0  0  0  0  0  0  0  0  0
   -4.2551   -0.1865    0.0000 C   0  0  0  0  0  0  0  0  0  0  0  0
   -0.3069    0.2155    0.0000 C   0  0  0  0  0  0  0  0  0  0  0  0
    0.9207   -0.6465    0.0000 C   0  0  0  0  0  0  0  0  0  0  0  0
    2.2810   -0.0145    0.0000 C   0  0  0  0  0  0  0  0  0  0  0  0
    2.4138    1.4796    0.0000 O   0  0  0  0  0  0  0  0  0  0  0  0
    3.5085   -0.8766    0.0000 O   0  0  0  0  0  0  0  0  0  0  0  0
  1  2  1  0
  2  3  1  0
  1  4  1  0
  4  5  1  0
  5  6  1  0
  6  7  2  0
  6  8  1  0
M  END
>  <rName>  (1755) 
MeO-bAla

>  <PQ_SYMBOL>  (1755) 
MeO-bAla

>  <FULL_NAME>  (1755) 
3-(methoxyamino)propanoic acid

>  <IUPAC_CONDENSED>  (1755) 
MeO-bAla

>  <IUPAC>  (1755) 
3-(methoxyamino)propanoic acid

>  <TYPE>  (1755) 
Backbone

>  <CLASS>  (1755) 
beta

>  <ANALOG>  (1755) 
Gly

>  <MOL_WT>  (1755) 
119.11999999999999

>  <LOGP>  (1755) 
-0.3879000000000004

>  <TPSA>  (1755) 
58.56

>  <POPULARITY>  (1755) 
11.5

>  <PROTECTED>  (1755) 
TRUE

>  <SMILES>  (1755) 
N(OC)CCC(=O)O

>  <INCHIKEY>  (1755) 
VKDCHAMVLXCQRF-UHFFFAOYSA-N

$$$$
bAla_3SBn_4CF3
     RDKit          2D

 17 17  0  0  0  0  0  0  0  0999 V2000
   -2.2447    1.1497    0.0000 N   0  0  0  0  0  0  0  0  0  0  0  0
   -2.5808   -0.3121    0.0000 C   0  0  0  0  0  0  0  0  0  0  0  0
   -1.4828   -1.3341    0.0000 C   0  0  0  0  0  0  0  0  0  0  0  0
   -0.0487   -0.8942    0.0000 C   0  0  0  0  0  0  0  0  0  0  0  0
    0.2873    0.5677    0.0000 C   0  0  0  0  0  0  0  0  0  0  0  0
    1.7213    1.0076    0.0000 C   0  0  0  0  0  0  0  0  0  0  0  0
    2.8194   -0.0143    0.0000 C   0  0  0  0  0  0  0  0  0  0  0  0
    2.4833   -1.4762    0.0000 C   0  0  0  0  0  0  0  0  0  0  0  0
    1.0493   -1.9161    0.0000 C   0  0  0  0  0  0  0  0  0  0  0  0
    4.2534    0.4256    0.0000 C   0  0  0  0  0  0  0  0  0  0  0  0
    5.6874    0.8655    0.0000 F   0  0  0  0  0  0  0  0  0  0  0  0
    4.6933   -1.0084    0.0000 F   0  0  0  0  0  0  0  0  0  0  0  0
    3.8135    1.8597    0.0000 F   0  0  0  0  0  0  0  0  0  0  0  0
   -4.0148   -0.7521    0.0000 C   0  0  0  0  0  0  0  0  0  0  0  0
   -5.1128    0.2699    0.0000 C   0  0  0  0  0  0  0  0  0  0  0  0
   -4.7768    1.7318    0.0000 O   0  0  0  0  0  0  0  0  0  0  0  0
   -6.5468   -0.1701    0.0000 O   0  0  0  0  0  0  0  0  0  0  0  0
  2  1  1  1
  2  3  1  0
  3  4  1  0
  4  5  1  0
  5  6  2  0
  6  7  1  0
  7  8  2  0
  8  9  1  0
  7 10  1  0
 10 11  1  0
 10 12  1  0
 10 13  1  0
  2 14  1  0
 14 15  1  0
 15 16  2  0
 15 17  1  0
  9  4  2  0
M  END
>  <rName>  (1756) 
bAla_3SBn_4CF3

>  <PQ_SYMBOL>  (1756) 
bAla_3SBn_4CF3

>  <FULL_NAME>  (1756) 
(S)-3-amino-4-(4-(trifluoromethyl)phenyl)butanoic acid

>  <IUPAC_CONDENSED>  (1756) 
bAla(3S-Bn(4-CF3))

>  <IUPAC>  (1756) 
(3S)-3-amino-4-(4-(trifluoromethyl)phenyl)butanoic acid

>  <TYPE>  (1756) 
Backbone

>  <CLASS>  (1756) 
beta

>  <ANALOG>  (1756) 
Phe

>  <MOL_WT>  (1756) 
247.21599999999992

>  <LOGP>  (1756) 
2.0499

>  <TPSA>  (1756) 
63.32000000000001

>  <POPULARITY>  (1756) 
5.3

>  <PROTECTED>  (1756) 
TRUE

>  <SMILES>  (1756) 
N[C@@H](Cc1(ccc(cc1)C(F)(F)F))CC(=O)O

>  <INCHIKEY>  (1756) 
RCVBUWYXFGWFHR-VIFPVBQESA-N

$$$$
bAla_3Ph_3Br
     RDKit          2D

 13 13  0  0  0  0  0  0  0  0999 V2000
   -1.2291   -1.8553    0.0000 N   0  0  0  0  0  0  0  0  0  0  0  0
   -0.9051   -0.3907    0.0000 C   0  0  0  0  0  0  0  0  0  0  0  0
    0.5252    0.0611    0.0000 C   0  0  0  0  0  0  0  0  0  0  0  0
    0.8491    1.5257    0.0000 C   0  0  0  0  0  0  0  0  0  0  0  0
    2.2795    1.9775    0.0000 C   0  0  0  0  0  0  0  0  0  0  0  0
    3.3859    0.9646    0.0000 C   0  0  0  0  0  0  0  0  0  0  0  0
    3.0620   -0.5000    0.0000 C   0  0  0  0  0  0  0  0  0  0  0  0
    4.1684   -1.5128    0.0000 Br  0  0  0  0  0  0  0  0  0  0  0  0
    1.6316   -0.9517    0.0000 C   0  0  0  0  0  0  0  0  0  0  0  0
   -2.0116    0.6222    0.0000 C   0  0  0  0  0  0  0  0  0  0  0  0
   -3.4419    0.1704    0.0000 C   0  0  0  0  0  0  0  0  0  0  0  0
   -3.7658   -1.2942    0.0000 O   0  0  0  0  0  0  0  0  0  0  0  0
   -4.5483    1.1832    0.0000 O   0  0  0  0  0  0  0  0  0  0  0  0
  1  2  1  0
  2  3  1  0
  3  4  2  0
  4  5  1  0
  5  6  2  0
  6  7  1  0
  7  8  1  0
  7  9  2  0
  2 10  1  0
 10 11  1  0
 11 12  2  0
 11 13  1  0
  9  3  1  0
M  END
>  <rName>  (1757) 
bAla_3Ph_3Br

>  <PQ_SYMBOL>  (1757) 
bAla_3Ph_3Br

>  <FULL_NAME>  (1757) 
3-amino-3-(3-bromophenyl)propanoic acid

>  <IUPAC_CONDENSED>  (1757) 
bAla(3-Ph(3-Br))

>  <IUPAC>  (1757) 
3-amino-3-(3-bromophenyl)propanoic acid

>  <TYPE>  (1757) 
Backbone

>  <CLASS>  (1757) 
beta

>  <ANALOG>  (1757) 
X

>  <MOL_WT>  (1757) 
244.08799999999997

>  <LOGP>  (1757) 
1.9236000000000002

>  <TPSA>  (1757) 
63.32000000000001

>  <POPULARITY>  (1757) 
7.3

>  <PROTECTED>  (1757) 
TRUE

>  <SMILES>  (1757) 
NC(c1(cccc(Br)c1))CC(=O)O

>  <INCHIKEY>  (1757) 
RLYAXKJHJUXZOT-UHFFFAOYSA-N

$$$$
bAla_3Ph_3Cl
     RDKit          2D

 13 13  0  0  0  0  0  0  0  0999 V2000
   -1.2291   -1.8553    0.0000 N   0  0  0  0  0  0  0  0  0  0  0  0
   -0.9051   -0.3907    0.0000 C   0  0  0  0  0  0  0  0  0  0  0  0
    0.5252    0.0611    0.0000 C   0  0  0  0  0  0  0  0  0  0  0  0
    0.8491    1.5257    0.0000 C   0  0  0  0  0  0  0  0  0  0  0  0
    2.2795    1.9775    0.0000 C   0  0  0  0  0  0  0  0  0  0  0  0
    3.3859    0.9646    0.0000 C   0  0  0  0  0  0  0  0  0  0  0  0
    3.0620   -0.5000    0.0000 C   0  0  0  0  0  0  0  0  0  0  0  0
    4.1684   -1.5128    0.0000 Cl  0  0  0  0  0  0  0  0  0  0  0  0
    1.6316   -0.9517    0.0000 C   0  0  0  0  0  0  0  0  0  0  0  0
   -2.0116    0.6222    0.0000 C   0  0  0  0  0  0  0  0  0  0  0  0
   -3.4419    0.1704    0.0000 C   0  0  0  0  0  0  0  0  0  0  0  0
   -3.7658   -1.2942    0.0000 O   0  0  0  0  0  0  0  0  0  0  0  0
   -4.5483    1.1832    0.0000 O   0  0  0  0  0  0  0  0  0  0  0  0
  1  2  1  0
  2  3  1  0
  3  4  2  0
  4  5  1  0
  5  6  2  0
  6  7  1  0
  7  8  1  0
  7  9  2  0
  2 10  1  0
 10 11  1  0
 11 12  2  0
 11 13  1  0
  9  3  1  0
M  END
>  <rName>  (1758) 
bAla_3Ph_3Cl

>  <PQ_SYMBOL>  (1758) 
bAla_3Ph_3Cl

>  <FULL_NAME>  (1758) 
3-amino-3-(3-chlorophenyl)propanoic acid

>  <IUPAC_CONDENSED>  (1758) 
bAla(3-Ph(3-Cl))

>  <IUPAC>  (1758) 
3-amino-3-(3-chlorophenyl)propanoic acid

>  <TYPE>  (1758) 
Backbone

>  <CLASS>  (1758) 
beta

>  <ANALOG>  (1758) 
X

>  <MOL_WT>  (1758) 
199.63699999999997

>  <LOGP>  (1758) 
1.8145000000000002

>  <TPSA>  (1758) 
63.32000000000001

>  <POPULARITY>  (1758) 
9.1

>  <PROTECTED>  (1758) 
TRUE

>  <SMILES>  (1758) 
NC(c1(cccc(Cl)c1))CC(=O)O

>  <INCHIKEY>  (1758) 
LIDRHPCWOYOBIZ-UHFFFAOYSA-N

$$$$
bAla_3Bn
     RDKit          2D

 13 13  0  0  0  0  0  0  0  0999 V2000
   -0.9767    1.2065    0.0000 N   0  0  0  0  0  0  0  0  0  0  0  0
   -1.1358   -0.2850    0.0000 C   0  0  0  0  0  0  0  0  0  0  0  0
    0.0764   -1.1685    0.0000 C   0  0  0  0  0  0  0  0  0  0  0  0
    1.4476   -0.5605    0.0000 C   0  0  0  0  0  0  0  0  0  0  0  0
    1.6067    0.9310    0.0000 C   0  0  0  0  0  0  0  0  0  0  0  0
    2.9779    1.5390    0.0000 C   0  0  0  0  0  0  0  0  0  0  0  0
    4.1901    0.6555    0.0000 C   0  0  0  0  0  0  0  0  0  0  0  0
    4.0310   -0.8361    0.0000 C   0  0  0  0  0  0  0  0  0  0  0  0
    2.6598   -1.4441    0.0000 C   0  0  0  0  0  0  0  0  0  0  0  0
   -2.5071   -0.8930    0.0000 C   0  0  0  0  0  0  0  0  0  0  0  0
   -3.7192   -0.0095    0.0000 C   0  0  0  0  0  0  0  0  0  0  0  0
   -3.5602    1.4821    0.0000 O   0  0  0  0  0  0  0  0  0  0  0  0
   -5.0905   -0.6175    0.0000 O   0  0  0  0  0  0  0  0  0  0  0  0
  1  2  1  0
  2  3  1  0
  3  4  1  0
  4  5  2  0
  5  6  1  0
  6  7  2  0
  7  8  1  0
  8  9  2  0
  2 10  1  0
 10 11  1  0
 11 12  2  0
 11 13  1  0
  9  4  1  0
M  END
>  <rName>  (1759) 
bAla_3Bn

>  <PQ_SYMBOL>  (1759) 
bAla_3Bn

>  <FULL_NAME>  (1759) 
3-amino-4-phenylbutanoic acid

>  <IUPAC_CONDENSED>  (1759) 
bAla(3-Bn)

>  <IUPAC>  (1759) 
3-amino-4-phenylbutanoic acid

>  <TYPE>  (1759) 
Backbone

>  <CLASS>  (1759) 
beta

>  <ANALOG>  (1759) 
Phe

>  <MOL_WT>  (1759) 
179.21899999999994

>  <LOGP>  (1759) 
1.0311000000000001

>  <TPSA>  (1759) 
63.32000000000001

>  <POPULARITY>  (1759) 
14.6

>  <PROTECTED>  (1759) 
TRUE

>  <SMILES>  (1759) 
NC(Cc1(ccccc1))CC(=O)O

>  <INCHIKEY>  (1759) 
OFVBLKINTLPEGH-UHFFFAOYSA-N

$$$$
bAla_3Ph_2F
     RDKit          2D

 13 13  0  0  0  0  0  0  0  0999 V2000
   -1.0916   -1.7365    0.0000 N   0  0  0  0  0  0  0  0  0  0  0  0
   -0.6994   -0.2887    0.0000 C   0  0  0  0  0  0  0  0  0  0  0  0
    0.7506    0.0955    0.0000 C   0  0  0  0  0  0  0  0  0  0  0  0
    1.1428    1.5433    0.0000 C   0  0  0  0  0  0  0  0  0  0  0  0
    2.5927    1.9276    0.0000 C   0  0  0  0  0  0  0  0  0  0  0  0
    3.6505    0.8640    0.0000 C   0  0  0  0  0  0  0  0  0  0  0  0
    3.2583   -0.5838    0.0000 C   0  0  0  0  0  0  0  0  0  0  0  0
    1.8083   -0.9680    0.0000 C   0  0  0  0  0  0  0  0  0  0  0  0
    1.4161   -2.4159    0.0000 F   0  0  0  0  0  0  0  0  0  0  0  0
   -1.7571    0.7749    0.0000 C   0  0  0  0  0  0  0  0  0  0  0  0
   -3.2071    0.3906    0.0000 C   0  0  0  0  0  0  0  0  0  0  0  0
   -3.5993   -1.0572    0.0000 O   0  0  0  0  0  0  0  0  0  0  0  0
   -4.2648    1.4542    0.0000 O   0  0  0  0  0  0  0  0  0  0  0  0
  1  2  1  0
  2  3  1  0
  3  4  2  0
  4  5  1  0
  5  6  2  0
  6  7  1  0
  7  8  2  0
  8  9  1  0
  2 10  1  0
 10 11  1  0
 11 12  2  0
 11 13  1  0
  8  3  1  0
M  END
>  <rName>  (1760) 
bAla_3Ph_2F

>  <PQ_SYMBOL>  (1760) 
bAla_3Ph_2F

>  <FULL_NAME>  (1760) 
3-amino-3-(2-fluorophenyl)propanoic acid

>  <IUPAC_CONDENSED>  (1760) 
bAla(3-Ph(2-F))

>  <IUPAC>  (1760) 
3-amino-3-(2-fluorophenyl)propanoic acid

>  <TYPE>  (1760) 
Backbone

>  <CLASS>  (1760) 
beta

>  <ANALOG>  (1760) 
X

>  <MOL_WT>  (1760) 
183.18199999999996

>  <LOGP>  (1760) 
1.3002000000000002

>  <TPSA>  (1760) 
63.32000000000001

>  <POPULARITY>  (1760) 
8.8

>  <PROTECTED>  (1760) 
TRUE

>  <SMILES>  (1760) 
NC(c1(ccccc1F))CC(=O)O

>  <INCHIKEY>  (1760) 
RSCLTSJQAQBNCE-UHFFFAOYSA-N

$$$$
bAla_3Ph_3F
     RDKit          2D

 13 13  0  0  0  0  0  0  0  0999 V2000
   -1.2291   -1.8553    0.0000 N   0  0  0  0  0  0  0  0  0  0  0  0
   -0.9051   -0.3907    0.0000 C   0  0  0  0  0  0  0  0  0  0  0  0
    0.5252    0.0611    0.0000 C   0  0  0  0  0  0  0  0  0  0  0  0
    0.8491    1.5257    0.0000 C   0  0  0  0  0  0  0  0  0  0  0  0
    2.2795    1.9775    0.0000 C   0  0  0  0  0  0  0  0  0  0  0  0
    3.3859    0.9646    0.0000 C   0  0  0  0  0  0  0  0  0  0  0  0
    3.0620   -0.5000    0.0000 C   0  0  0  0  0  0  0  0  0  0  0  0
    4.1684   -1.5128    0.0000 F   0  0  0  0  0  0  0  0  0  0  0  0
    1.6316   -0.9517    0.0000 C   0  0  0  0  0  0  0  0  0  0  0  0
   -2.0116    0.6222    0.0000 C   0  0  0  0  0  0  0  0  0  0  0  0
   -3.4419    0.1704    0.0000 C   0  0  0  0  0  0  0  0  0  0  0  0
   -3.7658   -1.2942    0.0000 O   0  0  0  0  0  0  0  0  0  0  0  0
   -4.5483    1.1832    0.0000 O   0  0  0  0  0  0  0  0  0  0  0  0
  1  2  1  0
  2  3  1  0
  3  4  2  0
  4  5  1  0
  5  6  2  0
  6  7  1  0
  7  8  1  0
  7  9  2  0
  2 10  1  0
 10 11  1  0
 11 12  2  0
 11 13  1  0
  9  3  1  0
M  END
>  <rName>  (1761) 
bAla_3Ph_3F

>  <PQ_SYMBOL>  (1761) 
bAla_3Ph_3F

>  <FULL_NAME>  (1761) 
3-amino-3-(3-fluorophenyl)propanoic acid

>  <IUPAC_CONDENSED>  (1761) 
bAla(3-Ph(3-F))

>  <IUPAC>  (1761) 
3-amino-3-(3-fluorophenyl)propanoic acid

>  <TYPE>  (1761) 
Backbone

>  <CLASS>  (1761) 
beta

>  <ANALOG>  (1761) 
X

>  <MOL_WT>  (1761) 
183.18199999999996

>  <LOGP>  (1761) 
1.3002000000000002

>  <TPSA>  (1761) 
63.32000000000001

>  <POPULARITY>  (1761) 
9

>  <PROTECTED>  (1761) 
TRUE

>  <SMILES>  (1761) 
NC(c1(cccc(F)c1))CC(=O)O

>  <INCHIKEY>  (1761) 
GZNJUJNKZBHINS-UHFFFAOYSA-N

$$$$
bAla_3Ph_2Cl
     RDKit          2D

 13 13  0  0  0  0  0  0  0  0999 V2000
   -1.0916   -1.7365    0.0000 N   0  0  0  0  0  0  0  0  0  0  0  0
   -0.6994   -0.2887    0.0000 C   0  0  0  0  0  0  0  0  0  0  0  0
    0.7506    0.0955    0.0000 C   0  0  0  0  0  0  0  0  0  0  0  0
    1.1428    1.5433    0.0000 C   0  0  0  0  0  0  0  0  0  0  0  0
    2.5927    1.9276    0.0000 C   0  0  0  0  0  0  0  0  0  0  0  0
    3.6505    0.8640    0.0000 C   0  0  0  0  0  0  0  0  0  0  0  0
    3.2583   -0.5838    0.0000 C   0  0  0  0  0  0  0  0  0  0  0  0
    1.8083   -0.9680    0.0000 C   0  0  0  0  0  0  0  0  0  0  0  0
    1.4161   -2.4159    0.0000 Cl  0  0  0  0  0  0  0  0  0  0  0  0
   -1.7571    0.7749    0.0000 C   0  0  0  0  0  0  0  0  0  0  0  0
   -3.2071    0.3906    0.0000 C   0  0  0  0  0  0  0  0  0  0  0  0
   -3.5993   -1.0572    0.0000 O   0  0  0  0  0  0  0  0  0  0  0  0
   -4.2648    1.4542    0.0000 O   0  0  0  0  0  0  0  0  0  0  0  0
  1  2  1  0
  2  3  1  0
  3  4  2  0
  4  5  1  0
  5  6  2  0
  6  7  1  0
  7  8  2  0
  8  9  1  0
  2 10  1  0
 10 11  1  0
 11 12  2  0
 11 13  1  0
  8  3  1  0
M  END
>  <rName>  (1762) 
bAla_3Ph_2Cl

>  <PQ_SYMBOL>  (1762) 
bAla_3Ph_2Cl

>  <FULL_NAME>  (1762) 
3-amino-3-(2-chlorophenyl)propanoic acid

>  <IUPAC_CONDENSED>  (1762) 
bAla(3-Ph(2-Cl))

>  <IUPAC>  (1762) 
3-amino-3-(2-chlorophenyl)propanoic acid

>  <TYPE>  (1762) 
Backbone

>  <CLASS>  (1762) 
beta

>  <ANALOG>  (1762) 
X

>  <MOL_WT>  (1762) 
199.63699999999994

>  <LOGP>  (1762) 
1.8145000000000002

>  <TPSA>  (1762) 
63.32000000000001

>  <POPULARITY>  (1762) 
8

>  <PROTECTED>  (1762) 
TRUE

>  <SMILES>  (1762) 
NC(c1(ccccc1Cl))CC(=O)O

>  <INCHIKEY>  (1762) 
NXXFYRJVRISCCP-UHFFFAOYSA-N

$$$$
D-Phe_3I
     RDKit          2D

 13 13  0  0  0  0  0  0  0  0999 V2000
   -1.7680    1.6690    0.0000 N   0  0  0  0  0  0  0  0  0  0  0  0
   -1.9932    0.1860    0.0000 C   0  0  0  0  0  0  0  0  0  0  0  0
   -0.8215   -0.7506    0.0000 C   0  0  0  0  0  0  0  0  0  0  0  0
    0.5754   -0.2041    0.0000 C   0  0  0  0  0  0  0  0  0  0  0  0
    0.8006    1.2789    0.0000 C   0  0  0  0  0  0  0  0  0  0  0  0
    2.1976    1.8254    0.0000 C   0  0  0  0  0  0  0  0  0  0  0  0
    3.3693    0.8888    0.0000 C   0  0  0  0  0  0  0  0  0  0  0  0
    3.1441   -0.5942    0.0000 C   0  0  0  0  0  0  0  0  0  0  0  0
    4.3158   -1.5307    0.0000 I   0  0  0  0  0  0  0  0  0  0  0  0
    1.7472   -1.1406    0.0000 C   0  0  0  0  0  0  0  0  0  0  0  0
   -3.3901   -0.3605    0.0000 C   0  0  0  0  0  0  0  0  0  0  0  0
   -3.6153   -1.8435    0.0000 O   0  0  0  0  0  0  0  0  0  0  0  0
   -4.5618    0.5760    0.0000 O   0  0  0  0  0  0  0  0  0  0  0  0
  2  1  1  6
  2  3  1  0
  3  4  1  0
  4  5  2  0
  5  6  1  0
  6  7  2  0
  7  8  1  0
  8  9  1  0
  8 10  2  0
  2 11  1  0
 11 12  2  0
 11 13  1  0
 10  4  1  0
M  END
>  <rName>  (1763) 
D-Phe_3I

>  <PQ_SYMBOL>  (1763) 
D-Phe_3I

>  <FULL_NAME>  (1763) 
(R)-2-amino-3-(3-iodophenyl)propanoic acid

>  <IUPAC_CONDENSED>  (1763) 
D-Phe(3-I)

>  <IUPAC>  (1763) 
(2R)-2-amino-3-(3-iodophenyl)propanoic acid

>  <TYPE>  (1763) 
Backbone

>  <CLASS>  (1763) 
alpha

>  <ANALOG>  (1763) 
Phe

>  <MOL_WT>  (1763) 
291.088

>  <LOGP>  (1763) 
1.2456000000000003

>  <TPSA>  (1763) 
63.32000000000001

>  <POPULARITY>  (1763) 
7.4

>  <PROTECTED>  (1763) 
TRUE

>  <SMILES>  (1763) 
N[C@H](Cc1(cccc(I)c1))C(=O)O

>  <INCHIKEY>  (1763) 
BABTYIKKTLTNRX-MRVPVSSYSA-N

$$$$
bAla_3SPh_3CN
     RDKit          2D

 14 14  0  0  0  0  0  0  0  0999 V2000
   -1.3964   -1.8531    0.0000 N   0  0  0  0  0  0  0  0  0  0  0  0
   -1.2480   -0.3604    0.0000 C   0  0  0  0  0  0  0  0  0  0  0  0
    0.1188    0.2574    0.0000 C   0  0  0  0  0  0  0  0  0  0  0  0
    0.2672    1.7500    0.0000 C   0  0  0  0  0  0  0  0  0  0  0  0
    1.6341    2.3678    0.0000 C   0  0  0  0  0  0  0  0  0  0  0  0
    2.8526    1.4930    0.0000 C   0  0  0  0  0  0  0  0  0  0  0  0
    2.7042    0.0003    0.0000 C   0  0  0  0  0  0  0  0  0  0  0  0
    3.9226   -0.8745    0.0000 C   0  0  0  0  0  0  0  0  0  0  0  0
    5.1411   -1.7494    0.0000 N   0  0  0  0  0  0  0  0  0  0  0  0
    1.3373   -0.6175    0.0000 C   0  0  0  0  0  0  0  0  0  0  0  0
   -2.4665    0.5144    0.0000 C   0  0  0  0  0  0  0  0  0  0  0  0
   -3.8334   -0.1034    0.0000 C   0  0  0  0  0  0  0  0  0  0  0  0
   -3.9818   -1.5960    0.0000 O   0  0  0  0  0  0  0  0  0  0  0  0
   -5.0518    0.7715    0.0000 O   0  0  0  0  0  0  0  0  0  0  0  0
  2  1  1  6
  2  3  1  0
  3  4  2  0
  4  5  1  0
  5  6  2  0
  6  7  1  0
  7  8  1  0
  8  9  3  0
  7 10  2  0
  2 11  1  0
 11 12  1  0
 12 13  2  0
 12 14  1  0
 10  3  1  0
M  END
>  <rName>  (1764) 
bAla_3SPh_3CN

>  <PQ_SYMBOL>  (1764) 
bAla_3SPh_3CN

>  <FULL_NAME>  (1764) 
(R)-3-amino-3-(3-cyanophenyl)propanoic acid

>  <IUPAC_CONDENSED>  (1764) 
bAla(3S-Ph(3-CN))

>  <IUPAC>  (1764) 
(3R)-3-amino-3-(3-(nitrilomethyl)phenyl)propanoic acid

>  <TYPE>  (1764) 
Backbone

>  <CLASS>  (1764) 
beta

>  <ANALOG>  (1764) 
Lys

>  <MOL_WT>  (1764) 
190.20199999999997

>  <LOGP>  (1764) 
1.03278

>  <TPSA>  (1764) 
87.11

>  <POPULARITY>  (1764) 
5.6

>  <PROTECTED>  (1764) 
TRUE

>  <SMILES>  (1764) 
N[C@@H](c1(cccc(C#N)c1))CC(=O)O

>  <INCHIKEY>  (1764) 
RRUDIPCLABXNDE-SECBINFHSA-N

$$$$
Abu_vinyl
     RDKit          2D

  9  8  0  0  0  0  0  0  0  0999 V2000
    0.7616   -1.8791    0.0000 N   0  0  0  0  0  0  0  0  0  0  0  0
    0.8459   -0.3815    0.0000 C   0  0  0  0  0  0  0  0  0  0  0  0
   -0.4089    0.4403    0.0000 C   0  0  0  0  0  0  0  0  0  0  0  0
   -1.7480   -0.2354    0.0000 C   0  0  0  0  0  0  0  0  0  0  0  0
   -3.0029    0.5864    0.0000 C   0  0  0  0  0  0  0  0  0  0  0  0
   -4.3420   -0.0894    0.0000 C   0  0  0  0  0  0  0  0  0  0  0  0
    2.1851    0.2943    0.0000 C   0  0  0  0  0  0  0  0  0  0  0  0
    2.2694    1.7919    0.0000 O   0  0  0  0  0  0  0  0  0  0  0  0
    3.4399   -0.5275    0.0000 O   0  0  0  0  0  0  0  0  0  0  0  0
  2  1  1  1
  2  3  1  0
  3  4  1  0
  4  5  1  0
  5  6  2  0
  2  7  1  0
  7  8  2  0
  7  9  1  0
M  END
>  <rName>  (1765) 
Abu_vinyl

>  <PQ_SYMBOL>  (1765) 
Abu_vinyl

>  <FULL_NAME>  (1765) 
(S)-2-aminohex-5-enoic acid

>  <IUPAC_CONDENSED>  (1765) 
Abu(vinyl)

>  <IUPAC>  (1765) 
(2S)-2-aminohex-5-enoic acid

>  <TYPE>  (1765) 
Backbone

>  <CLASS>  (1765) 
alpha

>  <ANALOG>  (1765) 
Leu

>  <MOL_WT>  (1765) 
129.159

>  <LOGP>  (1765) 
0.3645

>  <TPSA>  (1765) 
63.32000000000001

>  <POPULARITY>  (1765) 
12.2

>  <PROTECTED>  (1765) 
TRUE

>  <SMILES>  (1765) 
N[C@@H](CCC=C)C(=O)O

>  <INCHIKEY>  (1765) 
NPSWHDAHNWWMEG-YFKPBYRVSA-N

$$$$
Tyr_SO3nP
     RDKit          2D

 22 22  0  0  0  0  0  0  0  0999 V2000
   -5.0571    1.2528    0.0000 N   0  0  0  0  0  0  0  0  0  0  0  0
   -5.0140   -0.2465    0.0000 C   0  0  0  0  0  0  0  0  0  0  0  0
   -3.6939   -0.9589    0.0000 C   0  0  0  0  0  0  0  0  0  0  0  0
   -2.4170   -0.1718    0.0000 C   0  0  0  0  0  0  0  0  0  0  0  0
   -2.4601    1.3275    0.0000 C   0  0  0  0  0  0  0  0  0  0  0  0
   -1.1832    2.1146    0.0000 C   0  0  0  0  0  0  0  0  0  0  0  0
    0.1369    1.4022    0.0000 C   0  0  0  0  0  0  0  0  0  0  0  0
    1.4138    2.1893    0.0000 O   0  0  0  0  0  0  0  0  0  0  0  0
    2.7339    1.4769    0.0000 S   0  0  0  0  0  0  0  0  0  0  0  0
    2.0215    0.1569    0.0000 O   0  0  0  0  0  0  0  0  0  0  0  0
    3.4462    2.7970    0.0000 O   0  0  0  0  0  0  0  0  0  0  0  0
    4.0539    0.7646    0.0000 O   0  0  0  0  0  0  0  0  0  0  0  0
    4.0971   -0.7348    0.0000 C   0  0  0  0  0  0  0  0  0  0  0  0
    5.4171   -1.4471    0.0000 C   0  0  0  0  0  0  0  0  0  0  0  0
    4.7048   -2.7672    0.0000 C   0  0  0  0  0  0  0  0  0  0  0  0
    6.1295   -0.1270    0.0000 C   0  0  0  0  0  0  0  0  0  0  0  0
    6.7372   -2.1594    0.0000 C   0  0  0  0  0  0  0  0  0  0  0  0
    0.1800   -0.0971    0.0000 C   0  0  0  0  0  0  0  0  0  0  0  0
   -1.0969   -0.8842    0.0000 C   0  0  0  0  0  0  0  0  0  0  0  0
   -6.2909   -1.0336    0.0000 C   0  0  0  0  0  0  0  0  0  0  0  0
   -6.2478   -2.5330    0.0000 O   0  0  0  0  0  0  0  0  0  0  0  0
   -7.6110   -0.3212    0.0000 O   0  0  0  0  0  0  0  0  0  0  0  0
  2  1  1  1
  2  3  1  0
  3  4  1  0
  4  5  1  0
  5  6  2  0
  6  7  1  0
  7  8  1  0
  8  9  1  0
  9 10  2  0
  9 11  2  0
  9 12  1  0
 12 13  1  0
 13 14  1  0
 14 15  1  0
 14 16  1  0
 14 17  1  0
  7 18  2  0
 18 19  1  0
  2 20  1  0
 20 21  2  0
 20 22  1  0
 19  4  2  0
M  END
>  <rName>  (1766) 
Tyr_SO3nP

>  <PQ_SYMBOL>  (1766) 
Tyr_SO3nP

>  <FULL_NAME>  (1766) 
(2S)-2-amino-3-[4-(2,2-dimethylpropoxysulfonyloxy)phenyl]propanoic acid

>  <IUPAC_CONDENSED>  (1766) 
Tyr(SO3nP)

>  <IUPAC>  (1766) 
(2S)-2-amino-3-(4-((2,2-dimethylpropyl)oxysulfonyloxy)phenyl)propanoic acid

>  <TYPE>  (1766) 
Backbone

>  <CLASS>  (1766) 
alpha

>  <ANALOG>  (1766) 
Tyr

>  <MOL_WT>  (1766) 
331.39

>  <LOGP>  (1766) 
1.3272999999999997

>  <TPSA>  (1766) 
115.92

>  <POPULARITY>  (1766) 
2.7

>  <PROTECTED>  (1766) 
TRUE

>  <SMILES>  (1766) 
N[C@@H](Cc1(ccc(OS(=O)(=O)OCC(C)(C)C)cc1))C(=O)O

>  <INCHIKEY>  (1766) 
JEHCBXZLLVIZPO-LBPRGKRZSA-N

$$$$
bAla_3Spyrid4ylmethyl
     RDKit          2D

 13 13  0  0  0  0  0  0  0  0999 V2000
   -0.9767    1.2065    0.0000 N   0  0  0  0  0  0  0  0  0  0  0  0
   -1.1358   -0.2850    0.0000 C   0  0  0  0  0  0  0  0  0  0  0  0
    0.0764   -1.1685    0.0000 C   0  0  0  0  0  0  0  0  0  0  0  0
    1.4476   -0.5605    0.0000 C   0  0  0  0  0  0  0  0  0  0  0  0
    1.6067    0.9310    0.0000 C   0  0  0  0  0  0  0  0  0  0  0  0
    2.9779    1.5390    0.0000 C   0  0  0  0  0  0  0  0  0  0  0  0
    4.1901    0.6555    0.0000 N   0  0  0  0  0  0  0  0  0  0  0  0
    4.0310   -0.8361    0.0000 C   0  0  0  0  0  0  0  0  0  0  0  0
    2.6598   -1.4441    0.0000 C   0  0  0  0  0  0  0  0  0  0  0  0
   -2.5071   -0.8930    0.0000 C   0  0  0  0  0  0  0  0  0  0  0  0
   -3.7192   -0.0095    0.0000 C   0  0  0  0  0  0  0  0  0  0  0  0
   -3.5602    1.4821    0.0000 O   0  0  0  0  0  0  0  0  0  0  0  0
   -5.0905   -0.6175    0.0000 O   0  0  0  0  0  0  0  0  0  0  0  0
  2  1  1  1
  2  3  1  0
  3  4  1  0
  4  5  1  0
  5  6  2  0
  6  7  1  0
  7  8  2  0
  8  9  1  0
  2 10  1  0
 10 11  1  0
 11 12  2  0
 11 13  1  0
  9  4  2  0
M  END
>  <rName>  (1767) 
bAla_3Spyrid4ylmethyl

>  <PQ_SYMBOL>  (1767) 
bAla_3Spyrid4ylmethyl

>  <FULL_NAME>  (1767) 
(S)-3-amino-4-(pyridin-4-yl)butanoic acid

>  <IUPAC_CONDENSED>  (1767) 
bAla(3S-pyrid-4-ylmethyl)

>  <IUPAC>  (1767) 
(3S)-3-amino-4-(pyridin-4-yl)butanoic acid

>  <TYPE>  (1767) 
Backbone

>  <CLASS>  (1767) 
beta

>  <ANALOG>  (1767) 
Phe

>  <MOL_WT>  (1767) 
180.20699999999997

>  <LOGP>  (1767) 
0.4261000000000001

>  <TPSA>  (1767) 
76.21

>  <POPULARITY>  (1767) 
3.6

>  <PROTECTED>  (1767) 
TRUE

>  <SMILES>  (1767) 
N[C@@H](Cc1(ccncc1))CC(=O)O

>  <INCHIKEY>  (1767) 
HPMMXBBRJNNDBV-QMMMGPOBSA-N

$$$$
Asp-NH2
     RDKit          2D

  9  8  0  0  0  0  0  0  0  0999 V2000
   -0.2826   -1.7410    0.0000 N   0  0  0  0  0  0  0  0  0  0  0  0
   -0.5402   -0.2633    0.0000 C   0  0  0  0  0  0  0  0  0  0  0  0
   -1.9487    0.2525    0.0000 C   0  0  0  0  0  0  0  0  0  0  0  0
   -2.2062    1.7302    0.0000 O   0  0  0  0  0  0  0  0  0  0  0  0
   -3.0997   -0.7094    0.0000 N   0  0  0  0  0  0  0  0  0  0  0  0
    0.6108    0.6986    0.0000 C   0  0  0  0  0  0  0  0  0  0  0  0
    2.0193    0.1828    0.0000 C   0  0  0  0  0  0  0  0  0  0  0  0
    2.2769   -1.2950    0.0000 O   0  0  0  0  0  0  0  0  0  0  0  0
    3.1703    1.1447    0.0000 O   0  0  0  0  0  0  0  0  0  0  0  0
  2  1  1  6
  2  3  1  0
  3  4  2  0
  3  5  1  0
  2  6  1  0
  6  7  1  0
  7  8  2  0
  7  9  1  0
M  END
>  <rName>  (1768) 
Asp-NH2

>  <PQ_SYMBOL>  (1768) 
Asp-NH2

>  <FULL_NAME>  (1768) 
(S)-3,4-diamino-4-oxobutanoic acid

>  <IUPAC_CONDENSED>  (1768) 
Asp-NH2

>  <IUPAC>  (1768) 
(3S)-3-amino-3-carbamoylpropanoic acid

>  <TYPE>  (1768) 
Backbone

>  <CLASS>  (1768) 
beta

>  <ANALOG>  (1768) 
X

>  <MOL_WT>  (1768) 
132.119

>  <LOGP>  (1768) 
-1.7263000000000002

>  <TPSA>  (1768) 
106.41000000000001

>  <POPULARITY>  (1768) 
14.4

>  <PROTECTED>  (1768) 
TRUE

>  <SMILES>  (1768) 
N[C@H](C(=O)N)CC(=O)O

>  <INCHIKEY>  (1768) 
PMLJIHNCYNOQEQ-REOHCLBHSA-N

$$$$
aBnGaba_3SOH
     RDKit          2D

 15 15  0  0  0  0  0  0  0  0999 V2000
   -0.0890    1.6069    0.0000 N   0  0  0  0  0  0  0  0  0  0  0  0
   -0.4121    0.1421    0.0000 C   0  0  0  0  0  0  0  0  0  0  0  0
    0.6950   -0.8701    0.0000 C   0  0  0  0  0  0  0  0  0  0  0  0
    2.1250   -0.4174    0.0000 C   0  0  0  0  0  0  0  0  0  0  0  0
    2.4481    1.0474    0.0000 C   0  0  0  0  0  0  0  0  0  0  0  0
    3.8781    1.5000    0.0000 C   0  0  0  0  0  0  0  0  0  0  0  0
    4.9852    0.4879    0.0000 C   0  0  0  0  0  0  0  0  0  0  0  0
    4.6621   -0.9769    0.0000 C   0  0  0  0  0  0  0  0  0  0  0  0
    3.2321   -1.4296    0.0000 C   0  0  0  0  0  0  0  0  0  0  0  0
   -1.8422   -0.3106    0.0000 C   0  0  0  0  0  0  0  0  0  0  0  0
   -2.1652   -1.7754    0.0000 O   0  0  0  0  0  0  0  0  0  0  0  0
   -2.9492    0.7016    0.0000 C   0  0  0  0  0  0  0  0  0  0  0  0
   -4.3793    0.2489    0.0000 C   0  0  0  0  0  0  0  0  0  0  0  0
   -4.7023   -1.2159    0.0000 O   0  0  0  0  0  0  0  0  0  0  0  0
   -5.4863    1.2611    0.0000 O   0  0  0  0  0  0  0  0  0  0  0  0
  2  1  1  1
  2  3  1  0
  3  4  1  0
  4  5  2  0
  5  6  1  0
  6  7  2  0
  7  8  1  0
  8  9  2  0
  2 10  1  0
 10 11  1  1
 10 12  1  0
 12 13  1  0
 13 14  2  0
 13 15  1  0
  9  4  1  0
M  END
>  <rName>  (1769) 
aBnGaba_3SOH

>  <PQ_SYMBOL>  (1769) 
aBnGaba_3SOH

>  <FULL_NAME>  (1769) 
(3S,4S)-4-amino-3-hydroxy-5-phenylpentanoic acid

>  <IUPAC_CONDENSED>  (1769) 
aBnGaba(3S-OH)

>  <IUPAC>  (1769) 
(3S,4S)-4-amino-3-hydroxy-5-phenylpentanoic acid

>  <TYPE>  (1769) 
Backbone

>  <CLASS>  (1769) 
gamma

>  <ANALOG>  (1769) 
Phe

>  <MOL_WT>  (1769) 
209.24499999999995

>  <LOGP>  (1769) 
0.3920000000000001

>  <TPSA>  (1769) 
83.55

>  <POPULARITY>  (1769) 
8.4

>  <PROTECTED>  (1769) 
TRUE

>  <SMILES>  (1769) 
N[C@@H](Cc1(ccccc1))[C@@H](O)CC(=O)O

>  <INCHIKEY>  (1769) 
JAJQQUQHMLWDFB-UWVGGRQHSA-N

$$$$
imidazolidine-2-CO2H
     RDKit          2D

  8  8  0  0  0  0  0  0  0  0999 V2000
   -0.8342   -1.2135    0.0000 N   0  0  0  0  0  0  0  0  0  0  0  0
    0.0475   -0.0000    0.0000 C   0  0  0  0  0  0  0  0  0  0  0  0
   -0.8342    1.2135    0.0000 N   0  0  0  0  0  0  0  0  0  0  0  0
   -2.2608    0.7500    0.0000 C   0  0  0  0  0  0  0  0  0  0  0  0
   -2.2608   -0.7500    0.0000 C   0  0  0  0  0  0  0  0  0  0  0  0
    1.5475    0.0000    0.0000 C   0  0  0  0  0  0  0  0  0  0  0  0
    2.2975    1.2990    0.0000 O   0  0  0  0  0  0  0  0  0  0  0  0
    2.2975   -1.2990    0.0000 O   0  0  0  0  0  0  0  0  0  0  0  0
  1  2  1  0
  2  3  1  0
  3  4  1  0
  4  5  1  0
  2  6  1  0
  6  7  2  0
  6  8  1  0
  5  1  1  0
M  END
>  <rName>  (1770) 
imidazolidine-2-CO2H

>  <PQ_SYMBOL>  (1770) 
imidazolidine-2-CO2H

>  <FULL_NAME>  (1770) 
L-imidazolidine-2-carboxylic acid

>  <IUPAC_CONDENSED>  (1770) 
imidazolidine-2-CO2H

>  <IUPAC>  (1770) 
imidazolidine-2-carboxylic acid

>  <TYPE>  (1770) 
Backbone

>  <CLASS>  (1770) 
alpha

>  <ANALOG>  (1770) 
Pro

>  <MOL_WT>  (1770) 
116.11999999999999

>  <LOGP>  (1770) 
-1.4100999999999997

>  <TPSA>  (1770) 
61.36

>  <POPULARITY>  (1770) 
6.8

>  <PROTECTED>  (1770) 
TRUE

>  <SMILES>  (1770) 
N1C(NCC1)C(=O)O

>  <INCHIKEY>  (1770) 
DKXKVWKTEATBQK-UHFFFAOYSA-N

$$$$
D-aMePro
     RDKit          2D

  9  9  0  0  0  0  0  0  0  0999 V2000
   -0.4885   -1.0777    0.0000 N   0  0  0  0  0  0  0  0  0  0  0  0
   -0.0160    0.3460    0.0000 C   0  0  0  0  0  0  0  0  0  0  0  0
    0.7422    1.6403    0.0000 C   0  0  0  0  0  0  0  0  0  0  0  0
   -1.2239    1.2353    0.0000 C   0  0  0  0  0  0  0  0  0  0  0  0
   -2.4430    0.3613    0.0000 C   0  0  0  0  0  0  0  0  0  0  0  0
   -1.9885   -1.0682    0.0000 C   0  0  0  0  0  0  0  0  0  0  0  0
    1.3504   -0.2728    0.0000 C   0  0  0  0  0  0  0  0  0  0  0  0
    2.5695    0.6013    0.0000 O   0  0  0  0  0  0  0  0  0  0  0  0
    1.4978   -1.7655    0.0000 O   0  0  0  0  0  0  0  0  0  0  0  0
  1  2  1  0
  2  3  1  1
  2  4  1  0
  4  5  1  0
  5  6  1  0
  2  7  1  0
  7  8  2  0
  7  9  1  0
  6  1  1  0
M  END
>  <rName>  (1771) 
D-aMePro

>  <PQ_SYMBOL>  (1771) 
D-aMePro

>  <FULL_NAME>  (1771) 
(R)-2-methylpyrrolidine-2-carboxylic acid

>  <IUPAC_CONDENSED>  (1771) 
D-aMePro

>  <IUPAC>  (1771) 
(2R)-2-methylpyrrolidine-2-carboxylic acid

>  <TYPE>  (1771) 
Backbone

>  <CLASS>  (1771) 
alpha

>  <ANALOG>  (1771) 
Pro

>  <MOL_WT>  (1771) 
129.15900000000002

>  <LOGP>  (1771) 
0.2131

>  <TPSA>  (1771) 
49.33

>  <POPULARITY>  (1771) 
12.2

>  <PROTECTED>  (1771) 
TRUE

>  <SMILES>  (1771) 
N1[C@](C)(CCC1)C(=O)O

>  <INCHIKEY>  (1771) 
LWHHAVWYGIBIEU-ZCFIWIBFSA-N

$$$$
NMe-D-Phe_4Cl
     RDKit          2D

 14 14  0  0  0  0  0  0  0  0999 V2000
   -1.4939    1.3829    0.0000 N   0  0  0  0  0  0  0  0  0  0  0  0
   -2.5947    2.4018    0.0000 C   0  0  0  0  0  0  0  0  0  0  0  0
   -1.8260   -0.0799    0.0000 C   0  0  0  0  0  0  0  0  0  0  0  0
   -0.7252   -1.0989    0.0000 C   0  0  0  0  0  0  0  0  0  0  0  0
    0.7076   -0.6550    0.0000 C   0  0  0  0  0  0  0  0  0  0  0  0
    1.0397    0.8077    0.0000 C   0  0  0  0  0  0  0  0  0  0  0  0
    2.4725    1.2516    0.0000 C   0  0  0  0  0  0  0  0  0  0  0  0
    3.5733    0.2326    0.0000 C   0  0  0  0  0  0  0  0  0  0  0  0
    5.0062    0.6765    0.0000 Cl  0  0  0  0  0  0  0  0  0  0  0  0
    3.2413   -1.2302    0.0000 C   0  0  0  0  0  0  0  0  0  0  0  0
    1.8084   -1.6740    0.0000 C   0  0  0  0  0  0  0  0  0  0  0  0
   -3.2588   -0.5237    0.0000 C   0  0  0  0  0  0  0  0  0  0  0  0
   -3.5909   -1.9865    0.0000 O   0  0  0  0  0  0  0  0  0  0  0  0
   -4.3596    0.4952    0.0000 O   0  0  0  0  0  0  0  0  0  0  0  0
  1  2  1  0
  1  3  1  0
  3  4  1  6
  4  5  1  0
  5  6  1  0
  6  7  2  0
  7  8  1  0
  8  9  1  0
  8 10  2  0
 10 11  1  0
  3 12  1  0
 12 13  2  0
 12 14  1  0
 11  5  2  0
M  END
>  <rName>  (1772) 
NMe-D-Phe_4Cl

>  <PQ_SYMBOL>  (1772) 
NMe-D-Phe_4Cl

>  <FULL_NAME>  (1772) 
(R)-3-(4-chlorophenyl)-2-(methylamino)propanoic acid

>  <IUPAC_CONDENSED>  (1772) 
Me-D-Phe(4-Cl)

>  <IUPAC>  (1772) 
(2R)-3-(4-chlorophenyl)-2-(methylamino)propanoic acid

>  <TYPE>  (1772) 
Backbone

>  <CLASS>  (1772) 
alpha

>  <ANALOG>  (1772) 
Phe

>  <MOL_WT>  (1772) 
213.664

>  <LOGP>  (1772) 
1.5551

>  <TPSA>  (1772) 
49.33

>  <POPULARITY>  (1772) 
7.6

>  <PROTECTED>  (1772) 
TRUE

>  <SMILES>  (1772) 
N(C)[C@H](Cc1(ccc(Cl)cc1))C(=O)O

>  <INCHIKEY>  (1772) 
PVXYVWVFWHBBMH-SECBINFHSA-N

$$$$
2R-amino-cyclohexane-1R-CO2H
     RDKit          2D

 10 10  0  0  0  0  0  0  0  0999 V2000
   -0.4166   -2.3203    0.0000 N   0  0  0  0  0  0  0  0  0  0  0  0
    0.3975   -1.0604    0.0000 C   0  0  0  0  0  0  0  0  0  0  0  0
   -0.2866    0.2745    0.0000 C   0  0  0  0  0  0  0  0  0  0  0  0
    0.5274    1.5344    0.0000 C   0  0  0  0  0  0  0  0  0  0  0  0
    2.0255    1.4594    0.0000 C   0  0  0  0  0  0  0  0  0  0  0  0
    2.7096    0.1244    0.0000 C   0  0  0  0  0  0  0  0  0  0  0  0
    1.8956   -1.1355    0.0000 C   0  0  0  0  0  0  0  0  0  0  0  0
   -1.7848    0.3495    0.0000 C   0  0  0  0  0  0  0  0  0  0  0  0
   -2.5988   -0.9104    0.0000 O   0  0  0  0  0  0  0  0  0  0  0  0
   -2.4688    1.6844    0.0000 O   0  0  0  0  0  0  0  0  0  0  0  0
  2  1  1  1
  2  3  1  0
  3  4  1  0
  4  5  1  0
  5  6  1  0
  6  7  1  0
  3  8  1  6
  8  9  2  0
  8 10  1  0
  7  2  1  0
M  END
>  <rName>  (1773) 
2R-amino-cyclohexane-1R-CO2H

>  <PQ_SYMBOL>  (1773) 
2R-amino-cyclohexane-1R-CO2H

>  <FULL_NAME>  (1773) 
(1R,2R)-2-aminocyclohexane-1-carboxylic acid

>  <IUPAC_CONDENSED>  (1773) 
2R-amino-cyclohexane-1R-CO2H

>  <IUPAC>  (1773) 
(1R,2R)-2-aminocyclohexanecarboxylic acid

>  <TYPE>  (1773) 
Backbone

>  <CLASS>  (1773) 
beta

>  <ANALOG>  (1773) 
Leu

>  <MOL_WT>  (1773) 
143.186

>  <LOGP>  (1773) 
0.5884999999999998

>  <TPSA>  (1773) 
63.32000000000001

>  <POPULARITY>  (1773) 
9.4

>  <PROTECTED>  (1773) 
TRUE

>  <SMILES>  (1773) 
N[C@H]1[C@@H](CCCC1)C(=O)O

>  <INCHIKEY>  (1773) 
USQHEVWOPJDAAX-PHDIDXHHSA-N

$$$$
D-aMePhe_4F
     RDKit          2D

 14 14  0  0  0  0  0  0  0  0999 V2000
   -0.7614    1.4549    0.0000 N   0  0  0  0  0  0  0  0  0  0  0  0
   -1.9195    0.5015    0.0000 C   0  0  0  0  0  0  0  0  0  0  0  0
   -2.8728    1.6596    0.0000 C   0  0  0  0  0  0  0  0  0  0  0  0
   -0.9661   -0.6566    0.0000 C   0  0  0  0  0  0  0  0  0  0  0  0
    0.5135   -0.4100    0.0000 C   0  0  0  0  0  0  0  0  0  0  0  0
    1.0397    0.9947    0.0000 C   0  0  0  0  0  0  0  0  0  0  0  0
    2.5193    1.2413    0.0000 C   0  0  0  0  0  0  0  0  0  0  0  0
    3.4726    0.0832    0.0000 C   0  0  0  0  0  0  0  0  0  0  0  0
    4.9522    0.3298    0.0000 F   0  0  0  0  0  0  0  0  0  0  0  0
    2.9464   -1.3215    0.0000 C   0  0  0  0  0  0  0  0  0  0  0  0
    1.4668   -1.5681    0.0000 C   0  0  0  0  0  0  0  0  0  0  0  0
   -3.0776   -0.4518    0.0000 C   0  0  0  0  0  0  0  0  0  0  0  0
   -4.4822    0.0744    0.0000 O   0  0  0  0  0  0  0  0  0  0  0  0
   -2.8310   -1.9314    0.0000 O   0  0  0  0  0  0  0  0  0  0  0  0
  1  2  1  0
  2  3  1  1
  2  4  1  0
  4  5  1  0
  5  6  1  0
  6  7  2  0
  7  8  1  0
  8  9  1  0
  8 10  2  0
 10 11  1  0
  2 12  1  0
 12 13  2  0
 12 14  1  0
 11  5  2  0
M  END
>  <rName>  (1774) 
D-aMePhe_4F

>  <PQ_SYMBOL>  (1774) 
D-aMePhe_4F

>  <FULL_NAME>  (1774) 
(R)-2-amino-3-(4-fluorophenyl)-2-methylpropanoic acid

>  <IUPAC_CONDENSED>  (1774) 
D-aMePhe(4-F)

>  <IUPAC>  (1774) 
(2R)-2-amino-2-((4-fluorophenyl)methyl)propanoic acid

>  <TYPE>  (1774) 
Backbone

>  <CLASS>  (1774) 
alpha

>  <ANALOG>  (1774) 
Phe

>  <MOL_WT>  (1774) 
197.209

>  <LOGP>  (1774) 
1.1702

>  <TPSA>  (1774) 
63.32000000000001

>  <POPULARITY>  (1774) 
7.8

>  <PROTECTED>  (1774) 
TRUE

>  <SMILES>  (1774) 
N[C@](C)(Cc1(ccc(F)cc1))C(=O)O

>  <INCHIKEY>  (1774) 
BBRMBENCQBOTHY-SNVBAGLBSA-N

$$$$
bAla_3RBn_4OH
     RDKit          2D

 14 14  0  0  0  0  0  0  0  0999 V2000
   -1.3163    1.1838    0.0000 N   0  0  0  0  0  0  0  0  0  0  0  0
   -1.5499   -0.2979    0.0000 C   0  0  0  0  0  0  0  0  0  0  0  0
   -0.3836   -1.2411    0.0000 C   0  0  0  0  0  0  0  0  0  0  0  0
    1.0164   -0.7026    0.0000 C   0  0  0  0  0  0  0  0  0  0  0  0
    1.2501    0.7790    0.0000 C   0  0  0  0  0  0  0  0  0  0  0  0
    2.6501    1.3175    0.0000 C   0  0  0  0  0  0  0  0  0  0  0  0
    3.8164    0.3743    0.0000 C   0  0  0  0  0  0  0  0  0  0  0  0
    5.2165    0.9127    0.0000 O   0  0  0  0  0  0  0  0  0  0  0  0
    3.5828   -1.1074    0.0000 C   0  0  0  0  0  0  0  0  0  0  0  0
    2.1827   -1.6459    0.0000 C   0  0  0  0  0  0  0  0  0  0  0  0
   -2.9500   -0.8363    0.0000 C   0  0  0  0  0  0  0  0  0  0  0  0
   -4.1163    0.1069    0.0000 C   0  0  0  0  0  0  0  0  0  0  0  0
   -3.8826    1.5886    0.0000 O   0  0  0  0  0  0  0  0  0  0  0  0
   -5.5163   -0.4316    0.0000 O   0  0  0  0  0  0  0  0  0  0  0  0
  2  1  1  6
  2  3  1  0
  3  4  1  0
  4  5  1  0
  5  6  2  0
  6  7  1  0
  7  8  1  0
  7  9  2  0
  9 10  1  0
  2 11  1  0
 11 12  1  0
 12 13  2  0
 12 14  1  0
 10  4  2  0
M  END
>  <rName>  (1775) 
bAla_3RBn_4OH

>  <PQ_SYMBOL>  (1775) 
bAla_3RBn_4OH

>  <FULL_NAME>  (1775) 
(R)-3-amino-4-(4-hydroxyphenyl)butanoic acid

>  <IUPAC_CONDENSED>  (1775) 
bAla(3R-Bn(4-OH))

>  <IUPAC>  (1775) 
(3R)-3-amino-4-(4-hydroxyphenyl)butanoic acid

>  <TYPE>  (1775) 
Backbone

>  <CLASS>  (1775) 
beta

>  <ANALOG>  (1775) 
Tyr

>  <MOL_WT>  (1775) 
195.21799999999996

>  <LOGP>  (1775) 
0.7367000000000001

>  <TPSA>  (1775) 
83.55

>  <POPULARITY>  (1775) 
12.3

>  <PROTECTED>  (1775) 
TRUE

>  <SMILES>  (1775) 
N[C@H](Cc1(ccc(O)cc1))CC(=O)O

>  <INCHIKEY>  (1775) 
VUNPIAMEJXBAFP-MRVPVSSYSA-N

$$$$
D-Ala_13benzodioxol5yl
     RDKit          2D

 15 16  0  0  0  0  0  0  0  0999 V2000
    2.4169   -1.6715    0.0000 N   0  0  0  0  0  0  0  0  0  0  0  0
    2.6919   -0.1969    0.0000 C   0  0  0  0  0  0  0  0  0  0  0  0
    1.5524    0.7786    0.0000 C   0  0  0  0  0  0  0  0  0  0  0  0
    0.1379    0.2795    0.0000 C   0  0  0  0  0  0  0  0  0  0  0  0
   -0.1372   -1.1951    0.0000 C   0  0  0  0  0  0  0  0  0  0  0  0
   -1.5517   -1.6942    0.0000 C   0  0  0  0  0  0  0  0  0  0  0  0
   -2.6912   -0.7188    0.0000 C   0  0  0  0  0  0  0  0  0  0  0  0
   -4.1786   -0.9129    0.0000 O   0  0  0  0  0  0  0  0  0  0  0  0
   -4.8228    0.4417    0.0000 C   0  0  0  0  0  0  0  0  0  0  0  0
   -3.7336    1.4730    0.0000 O   0  0  0  0  0  0  0  0  0  0  0  0
   -2.4162    0.7558    0.0000 C   0  0  0  0  0  0  0  0  0  0  0  0
   -1.0016    1.2549    0.0000 C   0  0  0  0  0  0  0  0  0  0  0  0
    4.1064    0.3022    0.0000 C   0  0  0  0  0  0  0  0  0  0  0  0
    4.3814    1.7768    0.0000 O   0  0  0  0  0  0  0  0  0  0  0  0
    5.2459   -0.6732    0.0000 O   0  0  0  0  0  0  0  0  0  0  0  0
  2  1  1  6
  2  3  1  0
  3  4  1  0
  4  5  1  0
  5  6  2  0
  6  7  1  0
  7  8  1  0
  8  9  1  0
  9 10  1  0
 10 11  1  0
 11 12  1  0
  2 13  1  0
 13 14  2  0
 13 15  1  0
 11  7  2  0
 12  4  2  0
M  END
>  <rName>  (1776) 
D-Ala_13benzodioxol5yl

>  <PQ_SYMBOL>  (1776) 
D-Ala_13benzodioxol5yl

>  <FULL_NAME>  (1776) 
(R)-2-amino-3-(benzo[d][1,3]dioxol-5-yl)propanoic acid

>  <IUPAC_CONDENSED>  (1776) 
D-Ala(1,3-benzodioxol-5-yl)

>  <IUPAC>  (1776) 
(2R)-2-amino-3-(7,9-dioxabicyclo[4.3.0]nona-1,3,5-trien-3-yl)propanoic acid

>  <TYPE>  (1776) 
Backbone

>  <CLASS>  (1776) 
alpha

>  <ANALOG>  (1776) 
Tyr

>  <MOL_WT>  (1776) 
209.20099999999996

>  <LOGP>  (1776) 
0.36969999999999986

>  <TPSA>  (1776) 
81.78

>  <POPULARITY>  (1776) 
4.4

>  <PROTECTED>  (1776) 
TRUE

>  <SMILES>  (1776) 
N[C@H](Cc2(ccc1(OCOc1c2)))C(=O)O

>  <INCHIKEY>  (1776) 
XHBLRJRZRFZSGW-SSDOTTSWSA-N

$$$$
Phe_pyrid3yl
     RDKit          2D

 18 19  0  0  0  0  0  0  0  0999 V2000
   -3.2769    1.7174    0.0000 N   0  0  0  0  0  0  0  0  0  0  0  0
   -3.8349    0.3251    0.0000 C   0  0  0  0  0  0  0  0  0  0  0  0
   -2.9082   -0.8544    0.0000 C   0  0  0  0  0  0  0  0  0  0  0  0
   -1.4234   -0.6415    0.0000 C   0  0  0  0  0  0  0  0  0  0  0  0
   -0.8653    0.7508    0.0000 C   0  0  0  0  0  0  0  0  0  0  0  0
    0.6195    0.9637    0.0000 C   0  0  0  0  0  0  0  0  0  0  0  0
    1.5463   -0.2158    0.0000 C   0  0  0  0  0  0  0  0  0  0  0  0
    0.9882   -1.6081    0.0000 C   0  0  0  0  0  0  0  0  0  0  0  0
   -0.4966   -1.8210    0.0000 C   0  0  0  0  0  0  0  0  0  0  0  0
    3.0311   -0.0029    0.0000 C   0  0  0  0  0  0  0  0  0  0  0  0
    3.9578   -1.1824    0.0000 C   0  0  0  0  0  0  0  0  0  0  0  0
    5.4427   -0.9695    0.0000 C   0  0  0  0  0  0  0  0  0  0  0  0
    6.0007    0.4228    0.0000 C   0  0  0  0  0  0  0  0  0  0  0  0
    5.0740    1.6023    0.0000 N   0  0  0  0  0  0  0  0  0  0  0  0
    3.5891    1.3894    0.0000 C   0  0  0  0  0  0  0  0  0  0  0  0
   -5.3198    0.1122    0.0000 C   0  0  0  0  0  0  0  0  0  0  0  0
   -5.8778   -1.2801    0.0000 O   0  0  0  0  0  0  0  0  0  0  0  0
   -6.2465    1.2917    0.0000 O   0  0  0  0  0  0  0  0  0  0  0  0
  2  1  1  1
  2  3  1  0
  3  4  1  0
  4  5  1  0
  5  6  2  0
  6  7  1  0
  7  8  2  0
  8  9  1  0
  7 10  1  0
 10 11  2  0
 11 12  1  0
 12 13  2  0
 13 14  1  0
 14 15  2  0
  2 16  1  0
 16 17  2  0
 16 18  1  0
  9  4  2  0
 15 10  1  0
M  END
>  <rName>  (1777) 
Phe_pyrid3yl

>  <PQ_SYMBOL>  (1777) 
Phe_pyrid3yl

>  <FULL_NAME>  (1777) 
(S)-2-amino-3-(4-(pyridin-3-yl)phenyl)propanoic acid

>  <IUPAC_CONDENSED>  (1777) 
Phe(pyrid-3-yl)

>  <IUPAC>  (1777) 
(2S)-2-amino-3-(4-(pyridin-3-yl)phenyl)propanoic acid

>  <TYPE>  (1777) 
Backbone

>  <CLASS>  (1777) 
alpha

>  <ANALOG>  (1777) 
Phe

>  <MOL_WT>  (1777) 
242.278

>  <LOGP>  (1777) 
1.703

>  <TPSA>  (1777) 
76.21

>  <POPULARITY>  (1777) 
6

>  <PROTECTED>  (1777) 
TRUE

>  <SMILES>  (1777) 
N[C@@H](Cc1(ccc(cc1)c2(cccnc2)))C(=O)O

>  <INCHIKEY>  (1777) 
HWAKOCNTLFYOFR-ZDUSSCGKSA-N

$$$$
Phe_25diCl
     RDKit          2D

 14 14  0  0  0  0  0  0  0  0999 V2000
   -1.4552    1.7882    0.0000 N   0  0  0  0  0  0  0  0  0  0  0  0
   -1.9325    0.3661    0.0000 C   0  0  0  0  0  0  0  0  0  0  0  0
   -0.9397   -0.7583    0.0000 C   0  0  0  0  0  0  0  0  0  0  0  0
    0.5305   -0.4606    0.0000 C   0  0  0  0  0  0  0  0  0  0  0  0
    1.0078    0.9614    0.0000 C   0  0  0  0  0  0  0  0  0  0  0  0
    2.4780    1.2591    0.0000 C   0  0  0  0  0  0  0  0  0  0  0  0
    2.9553    2.6811    0.0000 Cl  0  0  0  0  0  0  0  0  0  0  0  0
    3.4709    0.1347    0.0000 C   0  0  0  0  0  0  0  0  0  0  0  0
    2.9935   -1.2874    0.0000 C   0  0  0  0  0  0  0  0  0  0  0  0
    1.5234   -1.5850    0.0000 C   0  0  0  0  0  0  0  0  0  0  0  0
    1.0461   -3.0070    0.0000 Cl  0  0  0  0  0  0  0  0  0  0  0  0
   -3.4027    0.0685    0.0000 C   0  0  0  0  0  0  0  0  0  0  0  0
   -3.8800   -1.3536    0.0000 O   0  0  0  0  0  0  0  0  0  0  0  0
   -4.3955    1.1929    0.0000 O   0  0  0  0  0  0  0  0  0  0  0  0
  2  1  1  1
  2  3  1  0
  3  4  1  0
  4  5  1  0
  5  6  2  0
  6  7  1  0
  6  8  1  0
  8  9  2  0
  9 10  1  0
 10 11  1  0
  2 12  1  0
 12 13  2  0
 12 14  1  0
 10  4  2  0
M  END
>  <rName>  (1778) 
Phe_25diCl

>  <PQ_SYMBOL>  (1778) 
Phe_25diCl

>  <FULL_NAME>  (1778) 
(S)-2-amino-3-(2,5-dichlorophenyl)propanoic acid

>  <IUPAC_CONDENSED>  (1778) 
Phe(2,5-diCl)

>  <IUPAC>  (1778) 
(2S)-2-amino-3-(2,5-dichlorophenyl)propanoic acid

>  <TYPE>  (1778) 
Backbone

>  <CLASS>  (1778) 
alpha

>  <ANALOG>  (1778) 
Phe

>  <MOL_WT>  (1778) 
234.082

>  <LOGP>  (1778) 
1.9478

>  <TPSA>  (1778) 
63.32000000000001

>  <POPULARITY>  (1778) 
4.9

>  <PROTECTED>  (1778) 
TRUE

>  <SMILES>  (1778) 
N[C@@H](Cc1(cc(Cl)ccc1Cl))C(=O)O

>  <INCHIKEY>  (1778) 
SDKIMTATYJGPBJ-QMMMGPOBSA-N

$$$$
aCbz4-NH2Gaba
     RDKit          2D

 18 18  0  0  0  0  0  0  0  0999 V2000
   -1.9667    1.8066    0.0000 N   0  0  0  0  0  0  0  0  0  0  0  0
   -2.2136    0.3271    0.0000 C   0  0  0  0  0  0  0  0  0  0  0  0
   -1.0557   -0.6265    0.0000 C   0  0  0  0  0  0  0  0  0  0  0  0
   -1.3025   -2.1060    0.0000 O   0  0  0  0  0  0  0  0  0  0  0  0
    0.3491   -0.1005    0.0000 O   0  0  0  0  0  0  0  0  0  0  0  0
    1.5070   -1.0540    0.0000 C   0  0  0  0  0  0  0  0  0  0  0  0
    2.9117   -0.5280    0.0000 C   0  0  0  0  0  0  0  0  0  0  0  0
    3.1586    0.9515    0.0000 C   0  0  0  0  0  0  0  0  0  0  0  0
    4.5633    1.4775    0.0000 C   0  0  0  0  0  0  0  0  0  0  0  0
    5.7212    0.5240    0.0000 C   0  0  0  0  0  0  0  0  0  0  0  0
    7.1260    1.0500    0.0000 N   0  0  0  0  0  0  0  0  0  0  0  0
    5.4744   -0.9556    0.0000 C   0  0  0  0  0  0  0  0  0  0  0  0
    4.0696   -1.4816    0.0000 C   0  0  0  0  0  0  0  0  0  0  0  0
   -3.6183   -0.1989    0.0000 C   0  0  0  0  0  0  0  0  0  0  0  0
   -4.7762    0.7546    0.0000 C   0  0  0  0  0  0  0  0  0  0  0  0
   -6.1810    0.2286    0.0000 C   0  0  0  0  0  0  0  0  0  0  0  0
   -6.4278   -1.2509    0.0000 O   0  0  0  0  0  0  0  0  0  0  0  0
   -7.3389    1.1822    0.0000 O   0  0  0  0  0  0  0  0  0  0  0  0
  2  1  1  6
  2  3  1  0
  3  4  2  0
  3  5  1  0
  5  6  1  0
  6  7  1  0
  7  8  1  0
  8  9  2  0
  9 10  1  0
 10 11  1  0
 10 12  2  0
 12 13  1  0
  2 14  1  0
 14 15  1  0
 15 16  1  0
 16 17  2  0
 16 18  1  0
 13  7  2  0
M  END
>  <rName>  (1779) 
aCbz4-NH2Gaba

>  <PQ_SYMBOL>  (1779) 
aCbz4-NH2Gaba

>  <FULL_NAME>  (1779) 
(S)-4-amino-5-((4-aminobenzyl)oxy)-5-oxopentanoic acid

>  <IUPAC_CONDENSED>  (1779) 
aCbz(4-NH2)Gaba

>  <IUPAC>  (1779) 
(4S)-4-amino-4-((((4-aminophenyl)methyl)oxy)carbonyl)butanoic acid

>  <TYPE>  (1779) 
Backbone

>  <CLASS>  (1779) 
gamma

>  <ANALOG>  (1779) 
X

>  <MOL_WT>  (1779) 
252.26999999999995

>  <LOGP>  (1779) 
0.5040999999999991

>  <TPSA>  (1779) 
115.64

>  <POPULARITY>  (1779) 
3

>  <PROTECTED>  (1779) 
TRUE

>  <SMILES>  (1779) 
N[C@H](C(=O)OCc1(ccc(N)cc1))CCC(=O)O

>  <INCHIKEY>  (1779) 
JFYMDVPMPMTFKA-JTQLQIEISA-N

$$$$
bAla_3RMe_PhEt
     RDKit          2D

 15 15  0  0  0  0  0  0  0  0999 V2000
   -2.3375    1.3624    0.0000 N   0  0  0  0  0  0  0  0  0  0  0  0
   -2.4397   -0.1341    0.0000 C   0  0  0  0  0  0  0  0  0  0  0  0
   -1.1948   -0.9709    0.0000 C   0  0  0  0  0  0  0  0  0  0  0  0
    0.1524   -0.3111    0.0000 C   0  0  0  0  0  0  0  0  0  0  0  0
    1.3973   -1.1479    0.0000 C   0  0  0  0  0  0  0  0  0  0  0  0
    2.7444   -0.4881    0.0000 C   0  0  0  0  0  0  0  0  0  0  0  0
    2.8466    1.0084    0.0000 C   0  0  0  0  0  0  0  0  0  0  0  0
    4.1937    1.6681    0.0000 C   0  0  0  0  0  0  0  0  0  0  0  0
    5.4386    0.8314    0.0000 C   0  0  0  0  0  0  0  0  0  0  0  0
    5.3364   -0.6651    0.0000 C   0  0  0  0  0  0  0  0  0  0  0  0
    3.9893   -1.3249    0.0000 C   0  0  0  0  0  0  0  0  0  0  0  0
   -3.7868   -0.7938    0.0000 C   0  0  0  0  0  0  0  0  0  0  0  0
   -5.0317    0.0429    0.0000 C   0  0  0  0  0  0  0  0  0  0  0  0
   -4.9295    1.5395    0.0000 O   0  0  0  0  0  0  0  0  0  0  0  0
   -6.3788   -0.6168    0.0000 O   0  0  0  0  0  0  0  0  0  0  0  0
  2  1  1  6
  2  3  1  0
  3  4  1  0
  4  5  2  0
  5  6  1  0
  6  7  2  0
  7  8  1  0
  8  9  2  0
  9 10  1  0
 10 11  2  0
  2 12  1  0
 12 13  1  0
 13 14  2  0
 13 15  1  0
 11  6  1  0
M  END
>  <rName>  (1780) 
bAla_3RMe_PhEt

>  <PQ_SYMBOL>  (1780) 
bAla_3RMe_PhEt

>  <FULL_NAME>  (1780) 
(R,E)-3-amino-6-phenylhex-5-enoic acid

>  <IUPAC_CONDENSED>  (1780) 
bAla(3R-Me,PhEt)

>  <IUPAC>  (1780) 
(3R,5E)-3-amino-6-phenylhex-5-enoic acid

>  <TYPE>  (1780) 
Backbone

>  <CLASS>  (1780) 
beta

>  <ANALOG>  (1780) 
X

>  <MOL_WT>  (1780) 
205.25699999999998

>  <LOGP>  (1780) 
1.8919

>  <TPSA>  (1780) 
63.32000000000001

>  <POPULARITY>  (1780) 
3.6

>  <PROTECTED>  (1780) 
TRUE

>  <SMILES>  (1780) 
N[C@H](C/C=C/c1ccccc1)CC(=O)O

>  <INCHIKEY>  (1780) 
BYMYELCZQGMMKN-TZOMUSMUSA-N

$$$$
Lys_propionyl
     RDKit          2D

 14 13  0  0  0  0  0  0  0  0999 V2000
    3.4434   -1.8746    0.0000 N   0  0  0  0  0  0  0  0  0  0  0  0
    3.5124   -0.3762    0.0000 C   0  0  0  0  0  0  0  0  0  0  0  0
    2.2492    0.4328    0.0000 C   0  0  0  0  0  0  0  0  0  0  0  0
    0.9171   -0.2567    0.0000 C   0  0  0  0  0  0  0  0  0  0  0  0
   -0.3461    0.5522    0.0000 C   0  0  0  0  0  0  0  0  0  0  0  0
   -1.6783   -0.1373    0.0000 C   0  0  0  0  0  0  0  0  0  0  0  0
   -2.9415    0.6717    0.0000 N   0  0  0  0  0  0  0  0  0  0  0  0
   -4.2736   -0.0178    0.0000 C   0  0  0  0  0  0  0  0  0  0  0  0
   -4.3426   -1.5162    0.0000 O   0  0  0  0  0  0  0  0  0  0  0  0
   -5.5368    0.7911    0.0000 C   0  0  0  0  0  0  0  0  0  0  0  0
   -6.8689    0.1016    0.0000 C   0  0  0  0  0  0  0  0  0  0  0  0
    4.8445    0.3133    0.0000 C   0  0  0  0  0  0  0  0  0  0  0  0
    4.9135    1.8117    0.0000 O   0  0  0  0  0  0  0  0  0  0  0  0
    6.1077   -0.4956    0.0000 O   0  0  0  0  0  0  0  0  0  0  0  0
  2  1  1  1
  2  3  1  0
  3  4  1  0
  4  5  1  0
  5  6  1  0
  6  7  1  0
  7  8  1  0
  8  9  2  0
  8 10  1  0
 10 11  1  0
  2 12  1  0
 12 13  2  0
 12 14  1  0
M  END
>  <rName>  (1781) 
Lys_propionyl

>  <PQ_SYMBOL>  (1781) 
Lys_propionyl

>  <FULL_NAME>  (1781) 
N6-propionyl-L-lysine

>  <IUPAC_CONDENSED>  (1781) 
Lys(propionyl)

>  <IUPAC>  (1781) 
(2S)-2-amino-6-ethylcarbonylaminohexanoic acid

>  <TYPE>  (1781) 
Backbone

>  <CLASS>  (1781) 
alpha

>  <ANALOG>  (1781) 
Lys

>  <MOL_WT>  (1781) 
202.254

>  <LOGP>  (1781) 
0.09479999999999905

>  <TPSA>  (1781) 
92.42

>  <POPULARITY>  (1781) 
19.1

>  <PROTECTED>  (1781) 
TRUE

>  <SMILES>  (1781) 
N[C@@H](CCCCNC(=O)CC)C(=O)O

>  <INCHIKEY>  (1781) 
PCANIHQHQYUJPY-ZETCQYMHSA-N

$$$$
D-Cys_NH2
     RDKit          2D

  8  7  0  0  0  0  0  0  0  0999 V2000
   -0.2517   -1.8862    0.0000 N   0  0  0  0  0  0  0  0  0  0  0  0
   -0.3100   -0.3873    0.0000 C   0  0  0  0  0  0  0  0  0  0  0  0
    0.9590    0.4126    0.0000 C   0  0  0  0  0  0  0  0  0  0  0  0
    2.2862   -0.2864    0.0000 S   0  0  0  0  0  0  0  0  0  0  0  0
    3.5551    0.5134    0.0000 N   0  0  0  0  0  0  0  0  0  0  0  0
   -1.6371    0.3117    0.0000 C   0  0  0  0  0  0  0  0  0  0  0  0
   -1.6954    1.8105    0.0000 O   0  0  0  0  0  0  0  0  0  0  0  0
   -2.9061   -0.4882    0.0000 O   0  0  0  0  0  0  0  0  0  0  0  0
  2  1  1  1
  2  3  1  0
  3  4  1  0
  4  5  1  0
  2  6  1  0
  6  7  2  0
  6  8  1  0
M  END
>  <rName>  (1782) 
D-Cys_NH2

>  <PQ_SYMBOL>  (1782) 
D-Cys_NH2

>  <FULL_NAME>  (1782) 
S-amino-D-cysteine

>  <IUPAC_CONDENSED>  (1782) 
D-Cys(NH2)

>  <IUPAC>  (1782) 
(2S)-2-amino-3-(aminosulfanyl)propanoic acid

>  <TYPE>  (1782) 
Backbone

>  <CLASS>  (1782) 
alpha

>  <ANALOG>  (1782) 
Cys

>  <MOL_WT>  (1782) 
136.17600000000002

>  <LOGP>  (1782) 
-0.9947999999999999

>  <TPSA>  (1782) 
89.34

>  <POPULARITY>  (1782) 
6.7

>  <PROTECTED>  (1782) 
TRUE

>  <SMILES>  (1782) 
N[C@H](CSN)C(=O)O

>  <INCHIKEY>  (1782) 
BIZJDMCTNSRKLZ-UWTATZPHSA-N

$$$$
Asp-Oallyl
     RDKit          2D

 12 11  0  0  0  0  0  0  0  0999 V2000
    1.0137    1.6688    0.0000 N   0  0  0  0  0  0  0  0  0  0  0  0
    0.8844    0.1744    0.0000 C   0  0  0  0  0  0  0  0  0  0  0  0
   -0.4745   -0.4608    0.0000 C   0  0  0  0  0  0  0  0  0  0  0  0
   -0.6039   -1.9552    0.0000 O   0  0  0  0  0  0  0  0  0  0  0  0
   -1.7040    0.3985    0.0000 O   0  0  0  0  0  0  0  0  0  0  0  0
   -3.0629   -0.2367    0.0000 C   0  0  0  0  0  0  0  0  0  0  0  0
   -4.2924    0.6225    0.0000 C   0  0  0  0  0  0  0  0  0  0  0  0
   -5.6513   -0.0126    0.0000 C   0  0  0  0  0  0  0  0  0  0  0  0
    2.1139   -0.6849    0.0000 C   0  0  0  0  0  0  0  0  0  0  0  0
    3.4728   -0.0497    0.0000 C   0  0  0  0  0  0  0  0  0  0  0  0
    3.6021    1.4447    0.0000 O   0  0  0  0  0  0  0  0  0  0  0  0
    4.7023   -0.9090    0.0000 O   0  0  0  0  0  0  0  0  0  0  0  0
  2  1  1  1
  2  3  1  0
  3  4  2  0
  3  5  1  0
  5  6  1  0
  6  7  1  0
  7  8  2  0
  2  9  1  0
  9 10  1  0
 10 11  2  0
 10 12  1  0
M  END
>  <rName>  (1783) 
Asp-Oallyl

>  <PQ_SYMBOL>  (1783) 
Asp-Oallyl

>  <FULL_NAME>  (1783) 
(S)-4-(allyloxy)-3-amino-4-oxobutanoic acid

>  <IUPAC_CONDENSED>  (1783) 
Asp-Oallyl

>  <IUPAC>  (1783) 
(3S)-3-amino-3-(((prop-2-en-1-yl)oxy)carbonyl)propanoic acid

>  <TYPE>  (1783) 
Backbone

>  <CLASS>  (1783) 
beta

>  <ANALOG>  (1783) 
X

>  <MOL_WT>  (1783) 
173.16799999999998

>  <LOGP>  (1783) 
-0.4824000000000002

>  <TPSA>  (1783) 
89.62000000000002

>  <POPULARITY>  (1783) 
4.9

>  <PROTECTED>  (1783) 
TRUE

>  <SMILES>  (1783) 
N[C@H](C(=O)OCC=C)CC(=O)O

>  <INCHIKEY>  (1783) 
KHIQYWBMJLMXHH-YFKPBYRVSA-N

$$$$
D-Nle_Pr
     RDKit          2D

 12 11  0  0  0  0  0  0  0  0999 V2000
    2.5981    1.8750    0.0000 N   0  0  0  0  0  0  0  0  0  0  0  0
    2.5981    0.3750    0.0000 C   0  0  0  0  0  0  0  0  0  0  0  0
    1.2990   -0.3750    0.0000 C   0  0  0  0  0  0  0  0  0  0  0  0
    0.0000    0.3750    0.0000 C   0  0  0  0  0  0  0  0  0  0  0  0
   -1.2990   -0.3750    0.0000 C   0  0  0  0  0  0  0  0  0  0  0  0
   -2.5981    0.3750    0.0000 C   0  0  0  0  0  0  0  0  0  0  0  0
   -3.8971   -0.3750    0.0000 C   0  0  0  0  0  0  0  0  0  0  0  0
   -5.1962    0.3750    0.0000 C   0  0  0  0  0  0  0  0  0  0  0  0
   -6.4952   -0.3750    0.0000 C   0  0  0  0  0  0  0  0  0  0  0  0
    3.8971   -0.3750    0.0000 C   0  0  0  0  0  0  0  0  0  0  0  0
    3.8971   -1.8750    0.0000 O   0  0  0  0  0  0  0  0  0  0  0  0
    5.1962    0.3750    0.0000 O   0  0  0  0  0  0  0  0  0  0  0  0
  2  1  1  1
  2  3  1  0
  3  4  1  0
  4  5  1  0
  5  6  1  0
  6  7  1  0
  7  8  1  0
  8  9  1  0
  2 10  1  0
 10 11  2  0
 10 12  1  0
M  END
>  <rName>  (1784) 
D-Nle_Pr

>  <PQ_SYMBOL>  (1784) 
D-Nle_Pr

>  <FULL_NAME>  (1784) 
(R)-2-aminononanoic acid

>  <IUPAC_CONDENSED>  (1784) 
D-Nle(Pr)

>  <IUPAC>  (1784) 
(2R)-2-aminononanoic acid

>  <TYPE>  (1784) 
Backbone

>  <CLASS>  (1784) 
alpha

>  <ANALOG>  (1784) 
X

>  <MOL_WT>  (1784) 
173.256

>  <LOGP>  (1784) 
1.7588

>  <TPSA>  (1784) 
63.32000000000001

>  <POPULARITY>  (1784) 
11.1

>  <PROTECTED>  (1784) 
TRUE

>  <SMILES>  (1784) 
N[C@H](CCCCCCC)C(=O)O

>  <INCHIKEY>  (1784) 
JVPFOKXICYJJSC-MRVPVSSYSA-N

$$$$
D-Nle_but3enyl
     RDKit          2D

 13 12  0  0  0  0  0  0  0  0999 V2000
    3.1740   -1.8865    0.0000 N   0  0  0  0  0  0  0  0  0  0  0  0
    3.1930   -0.3866    0.0000 C   0  0  0  0  0  0  0  0  0  0  0  0
    1.9036    0.3798    0.0000 C   0  0  0  0  0  0  0  0  0  0  0  0
    0.5951   -0.3537    0.0000 C   0  0  0  0  0  0  0  0  0  0  0  0
   -0.6943    0.4127    0.0000 C   0  0  0  0  0  0  0  0  0  0  0  0
   -2.0027   -0.3208    0.0000 C   0  0  0  0  0  0  0  0  0  0  0  0
   -3.2922    0.4456    0.0000 C   0  0  0  0  0  0  0  0  0  0  0  0
   -4.6006   -0.2879    0.0000 C   0  0  0  0  0  0  0  0  0  0  0  0
   -5.8900    0.4785    0.0000 C   0  0  0  0  0  0  0  0  0  0  0  0
   -7.1985   -0.2550    0.0000 C   0  0  0  0  0  0  0  0  0  0  0  0
    4.5014    0.3468    0.0000 C   0  0  0  0  0  0  0  0  0  0  0  0
    4.5204    1.8467    0.0000 O   0  0  0  0  0  0  0  0  0  0  0  0
    5.7909   -0.4196    0.0000 O   0  0  0  0  0  0  0  0  0  0  0  0
  2  1  1  6
  2  3  1  0
  3  4  1  0
  4  5  1  0
  5  6  1  0
  6  7  1  0
  7  8  1  0
  8  9  1  0
  9 10  2  0
  2 11  1  0
 11 12  2  0
 11 13  1  0
M  END
>  <rName>  (1785) 
D-Nle_but3enyl

>  <PQ_SYMBOL>  (1785) 
D-Nle_but3enyl

>  <FULL_NAME>  (1785) 
(R)-2-aminodec-9-enoic acid

>  <IUPAC_CONDENSED>  (1785) 
D-Nle(but-3-enyl)

>  <IUPAC>  (1785) 
(2R)-2-aminodec-9-enoic acid

>  <TYPE>  (1785) 
Backbone

>  <CLASS>  (1785) 
alpha

>  <ANALOG>  (1785) 
X

>  <MOL_WT>  (1785) 
185.267

>  <LOGP>  (1785) 
1.9248999999999998

>  <TPSA>  (1785) 
63.32000000000001

>  <POPULARITY>  (1785) 
6.2

>  <PROTECTED>  (1785) 
TRUE

>  <SMILES>  (1785) 
N[C@H](CCCCCCC=C)C(=O)O

>  <INCHIKEY>  (1785) 
XDHWDJVNBSJHRY-SECBINFHSA-N

$$$$
NMe-D-Phe_4F
     RDKit          2D

 14 14  0  0  0  0  0  0  0  0999 V2000
   -1.4939    1.3829    0.0000 N   0  0  0  0  0  0  0  0  0  0  0  0
   -2.5947    2.4018    0.0000 C   0  0  0  0  0  0  0  0  0  0  0  0
   -1.8260   -0.0799    0.0000 C   0  0  0  0  0  0  0  0  0  0  0  0
   -0.7252   -1.0989    0.0000 C   0  0  0  0  0  0  0  0  0  0  0  0
    0.7076   -0.6550    0.0000 C   0  0  0  0  0  0  0  0  0  0  0  0
    1.0397    0.8077    0.0000 C   0  0  0  0  0  0  0  0  0  0  0  0
    2.4725    1.2516    0.0000 C   0  0  0  0  0  0  0  0  0  0  0  0
    3.5733    0.2326    0.0000 C   0  0  0  0  0  0  0  0  0  0  0  0
    5.0062    0.6765    0.0000 F   0  0  0  0  0  0  0  0  0  0  0  0
    3.2413   -1.2302    0.0000 C   0  0  0  0  0  0  0  0  0  0  0  0
    1.8084   -1.6740    0.0000 C   0  0  0  0  0  0  0  0  0  0  0  0
   -3.2588   -0.5237    0.0000 C   0  0  0  0  0  0  0  0  0  0  0  0
   -3.5909   -1.9865    0.0000 O   0  0  0  0  0  0  0  0  0  0  0  0
   -4.3596    0.4952    0.0000 O   0  0  0  0  0  0  0  0  0  0  0  0
  1  2  1  0
  1  3  1  0
  3  4  1  6
  4  5  1  0
  5  6  1  0
  6  7  2  0
  7  8  1  0
  8  9  1  0
  8 10  2  0
 10 11  1  0
  3 12  1  0
 12 13  2  0
 12 14  1  0
 11  5  2  0
M  END
>  <rName>  (1786) 
NMe-D-Phe_4F

>  <PQ_SYMBOL>  (1786) 
NMe-D-Phe_4F

>  <FULL_NAME>  (1786) 
(R)-3-(4-fluorophenyl)-2-(methylamino)propanoic acid

>  <IUPAC_CONDENSED>  (1786) 
Me-D-Phe(4-F)

>  <IUPAC>  (1786) 
(2R)-3-(4-fluorophenyl)-2-(methylamino)propanoic acid

>  <TYPE>  (1786) 
Backbone

>  <CLASS>  (1786) 
alpha

>  <ANALOG>  (1786) 
Phe

>  <MOL_WT>  (1786) 
197.209

>  <LOGP>  (1786) 
1.0407999999999997

>  <TPSA>  (1786) 
49.33

>  <POPULARITY>  (1786) 
8.3

>  <PROTECTED>  (1786) 
TRUE

>  <SMILES>  (1786) 
N(C)[C@H](Cc1(ccc(F)cc1))C(=O)O

>  <INCHIKEY>  (1786) 
RQAMVTQIJKZDAC-SECBINFHSA-N

$$$$
Deg_g_gdiEt
     RDKit          2D

 13 12  0  0  0  0  0  0  0  0999 V2000
    0.0000    1.0467    0.0000 N   0  0  0  0  0  0  0  0  0  0  0  0
    0.0000   -0.4533    0.0000 C   0  0  0  0  0  0  0  0  0  0  0  0
    1.5000   -0.4533    0.0000 C   0  0  0  0  0  0  0  0  0  0  0  0
    2.2500    0.8458    0.0000 C   0  0  0  0  0  0  0  0  0  0  0  0
    3.7500    0.8458    0.0000 C   0  0  0  0  0  0  0  0  0  0  0  0
    4.5000    2.1448    0.0000 C   0  0  0  0  0  0  0  0  0  0  0  0
   -1.5000   -0.4533    0.0000 C   0  0  0  0  0  0  0  0  0  0  0  0
   -2.2500    0.8458    0.0000 C   0  0  0  0  0  0  0  0  0  0  0  0
   -3.7500    0.8458    0.0000 C   0  0  0  0  0  0  0  0  0  0  0  0
   -4.5000    2.1448    0.0000 C   0  0  0  0  0  0  0  0  0  0  0  0
    0.0000   -1.9533    0.0000 C   0  0  0  0  0  0  0  0  0  0  0  0
    1.2990   -2.7033    0.0000 O   0  0  0  0  0  0  0  0  0  0  0  0
   -1.2990   -2.7033    0.0000 O   0  0  0  0  0  0  0  0  0  0  0  0
  1  2  1  0
  2  3  1  0
  3  4  1  0
  4  5  1  0
  5  6  1  0
  2  7  1  0
  7  8  1  0
  8  9  1  0
  9 10  1  0
  2 11  1  0
 11 12  2  0
 11 13  1  0
M  END
>  <rName>  (1787) 
Deg_g_gdiEt

>  <PQ_SYMBOL>  (1787) 
Deg_g_gdiEt

>  <FULL_NAME>  (1787) 
2-amino-2-butylhexanoic acid

>  <IUPAC_CONDENSED>  (1787) 
Deg(g,g-diEt)

>  <IUPAC>  (1787) 
2-amino-2-butylhexanoic acid

>  <TYPE>  (1787) 
Backbone

>  <CLASS>  (1787) 
alpha

>  <ANALOG>  (1787) 
X

>  <MOL_WT>  (1787) 
187.28300000000002

>  <LOGP>  (1787) 
2.1489

>  <TPSA>  (1787) 
63.32000000000001

>  <POPULARITY>  (1787) 
11.1

>  <PROTECTED>  (1787) 
TRUE

>  <SMILES>  (1787) 
NC(CCCC)(CCCC)C(=O)O

>  <INCHIKEY>  (1787) 
CAITYLFVJGDODP-UHFFFAOYSA-N

$$$$
Arg-Gly
     RDKit          2D

 16 15  0  0  0  0  0  0  0  0999 V2000
    3.1012   -0.2036    0.0000 N   0  0  0  0  0  0  0  0  0  0  0  0
    1.7627    0.4733    0.0000 C   0  0  0  0  0  0  0  0  0  0  0  0
    1.6796    1.9710    0.0000 O   0  0  0  0  0  0  0  0  0  0  0  0
    0.5072   -0.3474    0.0000 C   0  0  0  0  0  0  0  0  0  0  0  0
    0.5902   -1.8451    0.0000 N   0  0  0  0  0  0  0  0  0  0  0  0
   -0.8314    0.3295    0.0000 C   0  0  0  0  0  0  0  0  0  0  0  0
   -2.0869   -0.4913    0.0000 C   0  0  0  0  0  0  0  0  0  0  0  0
   -3.4255    0.1856    0.0000 C   0  0  0  0  0  0  0  0  0  0  0  0
   -4.6810   -0.6352    0.0000 N   0  0  0  0  0  0  0  0  0  0  0  0
   -6.0196    0.0417    0.0000 C   0  0  0  0  0  0  0  0  0  0  0  0
   -6.1027    1.5394    0.0000 N   0  0  0  0  0  0  0  0  0  0  0  0
   -7.2751   -0.7791    0.0000 N   0  0  0  0  0  0  0  0  0  0  0  0
    4.3568    0.6172    0.0000 C   0  0  0  0  0  0  0  0  0  0  0  0
    5.6953   -0.0597    0.0000 C   0  0  0  0  0  0  0  0  0  0  0  0
    5.7784   -1.5574    0.0000 O   0  0  0  0  0  0  0  0  0  0  0  0
    6.9508    0.7611    0.0000 O   0  0  0  0  0  0  0  0  0  0  0  0
  1  2  1  0
  2  3  2  0
  2  4  1  0
  4  5  1  1
  4  6  1  0
  6  7  1  0
  7  8  1  0
  8  9  1  0
  9 10  1  0
 10 11  2  0
 10 12  1  0
  1 13  1  0
 13 14  1  0
 14 15  2  0
 14 16  1  0
M  END
>  <rName>  (1788) 
Arg-Gly

>  <PQ_SYMBOL>  (1788) 
Arg-Gly

>  <FULL_NAME>  (1788) 
L-arginylglycine

>  <IUPAC_CONDENSED>  (1788) 
Arg-Gly

>  <IUPAC>  (1788) 
2-((1S)-1-amino-4-(((amino)(imino)methyl)amino)butylcarbonylamino)acetic acid

>  <TYPE>  (1788) 
Backbone

>  <CLASS>  (1788) 
alpha

>  <ANALOG>  (1788) 
Gly

>  <MOL_WT>  (1788) 
231.256

>  <LOGP>  (1788) 
-2.222229999999998

>  <TPSA>  (1788) 
154.32

>  <POPULARITY>  (1788) 
12.7

>  <PROTECTED>  (1788) 
TRUE

>  <SMILES>  (1788) 
N(C(=O)[C@@H](N)CCCNC(=N)N)CC(=O)O

>  <INCHIKEY>  (1788) 
XUUXCWCKKCZEAW-YFKPBYRVSA-N

$$$$
bAla_3RPh_2Cl
     RDKit          2D

 13 13  0  0  0  0  0  0  0  0999 V2000
   -1.0916   -1.7365    0.0000 N   0  0  0  0  0  0  0  0  0  0  0  0
   -0.6994   -0.2887    0.0000 C   0  0  0  0  0  0  0  0  0  0  0  0
    0.7506    0.0955    0.0000 C   0  0  0  0  0  0  0  0  0  0  0  0
    1.1428    1.5433    0.0000 C   0  0  0  0  0  0  0  0  0  0  0  0
    2.5927    1.9276    0.0000 C   0  0  0  0  0  0  0  0  0  0  0  0
    3.6505    0.8640    0.0000 C   0  0  0  0  0  0  0  0  0  0  0  0
    3.2583   -0.5838    0.0000 C   0  0  0  0  0  0  0  0  0  0  0  0
    1.8083   -0.9680    0.0000 C   0  0  0  0  0  0  0  0  0  0  0  0
    1.4161   -2.4159    0.0000 Cl  0  0  0  0  0  0  0  0  0  0  0  0
   -1.7571    0.7749    0.0000 C   0  0  0  0  0  0  0  0  0  0  0  0
   -3.2071    0.3906    0.0000 C   0  0  0  0  0  0  0  0  0  0  0  0
   -3.5993   -1.0572    0.0000 O   0  0  0  0  0  0  0  0  0  0  0  0
   -4.2648    1.4542    0.0000 O   0  0  0  0  0  0  0  0  0  0  0  0
  2  1  1  1
  2  3  1  0
  3  4  2  0
  4  5  1  0
  5  6  2  0
  6  7  1  0
  7  8  2  0
  8  9  1  0
  2 10  1  0
 10 11  1  0
 11 12  2  0
 11 13  1  0
  8  3  1  0
M  END
>  <rName>  (1789) 
bAla_3RPh_2Cl

>  <PQ_SYMBOL>  (1789) 
bAla_3RPh_2Cl

>  <FULL_NAME>  (1789) 
(S)-3-amino-3-(2-chlorophenyl)propanoic acid

>  <IUPAC_CONDENSED>  (1789) 
bAla(3R-Ph(2-Cl))

>  <IUPAC>  (1789) 
(3S)-3-amino-3-(2-chlorophenyl)propanoic acid

>  <TYPE>  (1789) 
Backbone

>  <CLASS>  (1789) 
beta

>  <ANALOG>  (1789) 
X

>  <MOL_WT>  (1789) 
199.63699999999994

>  <LOGP>  (1789) 
1.8145000000000002

>  <TPSA>  (1789) 
63.32000000000001

>  <POPULARITY>  (1789) 
8.1

>  <PROTECTED>  (1789) 
TRUE

>  <SMILES>  (1789) 
N[C@H](c1(ccccc1Cl))CC(=O)O

>  <INCHIKEY>  (1789) 
NXXFYRJVRISCCP-QMMMGPOBSA-N

$$$$
D-Ala_thien2yl_5Br
     RDKit          2D

 12 12  0  0  0  0  0  0  0  0999 V2000
   -1.1070    1.6556    0.0000 N   0  0  0  0  0  0  0  0  0  0  0  0
   -1.6374    0.2525    0.0000 C   0  0  0  0  0  0  0  0  0  0  0  0
   -0.6875   -0.9084    0.0000 C   0  0  0  0  0  0  0  0  0  0  0  0
    0.7928   -0.6662    0.0000 C   0  0  0  0  0  0  0  0  0  0  0  0
    1.8589   -1.7215    0.0000 C   0  0  0  0  0  0  0  0  0  0  0  0
    3.1919   -1.0337    0.0000 C   0  0  0  0  0  0  0  0  0  0  0  0
    2.9497    0.4466    0.0000 C   0  0  0  0  0  0  0  0  0  0  0  0
    4.0050    1.5127    0.0000 Br  0  0  0  0  0  0  0  0  0  0  0  0
    1.4670    0.6737    0.0000 S   0  0  0  0  0  0  0  0  0  0  0  0
   -3.1177    0.0103    0.0000 C   0  0  0  0  0  0  0  0  0  0  0  0
   -3.6481   -1.3928    0.0000 O   0  0  0  0  0  0  0  0  0  0  0  0
   -4.0676    1.1712    0.0000 O   0  0  0  0  0  0  0  0  0  0  0  0
  2  1  1  6
  2  3  1  0
  3  4  1  0
  4  5  2  0
  5  6  1  0
  6  7  2  0
  7  8  1  0
  7  9  1  0
  2 10  1  0
 10 11  2  0
 10 12  1  0
  9  4  1  0
M  END
>  <rName>  (1790) 
D-Ala_thien2yl_5Br

>  <PQ_SYMBOL>  (1790) 
D-Ala_thien2yl_5Br

>  <FULL_NAME>  (1790) 
(R)-2-amino-3-(5-bromothiophen-2-yl)propanoic acid

>  <IUPAC_CONDENSED>  (1790) 
D-Ala(thien-2-yl(5-Br))

>  <IUPAC>  (1790) 
(2R)-2-amino-3-(5-bromothiophen-2-yl)propanoic acid

>  <TYPE>  (1790) 
Backbone

>  <CLASS>  (1790) 
alpha

>  <ANALOG>  (1790) 
Phe

>  <MOL_WT>  (1790) 
250.11699999999996

>  <LOGP>  (1790) 
1.465

>  <TPSA>  (1790) 
63.32000000000001

>  <POPULARITY>  (1790) 
5

>  <PROTECTED>  (1790) 
TRUE

>  <SMILES>  (1790) 
N[C@H](Cc1(ccc(Br)s1))C(=O)O

>  <INCHIKEY>  (1790) 
LKORPMMOJAJYLC-RXMQYKEDSA-N

$$$$
bAla_3naphth2yl
     RDKit          2D

 16 17  0  0  0  0  0  0  0  0999 V2000
   -2.7878   -1.8484    0.0000 N   0  0  0  0  0  0  0  0  0  0  0  0
   -1.9911   -0.5775    0.0000 C   0  0  0  0  0  0  0  0  0  0  0  0
   -0.4921   -0.6320    0.0000 C   0  0  0  0  0  0  0  0  0  0  0  0
    0.2102   -1.9575    0.0000 C   0  0  0  0  0  0  0  0  0  0  0  0
    1.7092   -2.0120    0.0000 C   0  0  0  0  0  0  0  0  0  0  0  0
    2.5060   -0.7411    0.0000 C   0  0  0  0  0  0  0  0  0  0  0  0
    4.0050   -0.7956    0.0000 C   0  0  0  0  0  0  0  0  0  0  0  0
    4.8017    0.4753    0.0000 C   0  0  0  0  0  0  0  0  0  0  0  0
    4.0994    1.8007    0.0000 C   0  0  0  0  0  0  0  0  0  0  0  0
    2.6004    1.8552    0.0000 C   0  0  0  0  0  0  0  0  0  0  0  0
    1.8037    0.5843    0.0000 C   0  0  0  0  0  0  0  0  0  0  0  0
    0.3047    0.6389    0.0000 C   0  0  0  0  0  0  0  0  0  0  0  0
   -2.6933    0.7479    0.0000 C   0  0  0  0  0  0  0  0  0  0  0  0
   -4.1923    0.8025    0.0000 C   0  0  0  0  0  0  0  0  0  0  0  0
   -4.9891   -0.4685    0.0000 O   0  0  0  0  0  0  0  0  0  0  0  0
   -4.8946    2.1279    0.0000 O   0  0  0  0  0  0  0  0  0  0  0  0
  1  2  1  0
  2  3  1  0
  3  4  1  0
  4  5  2  0
  5  6  1  0
  6  7  2  0
  7  8  1  0
  8  9  2  0
  9 10  1  0
 10 11  2  0
 11 12  1  0
  2 13  1  0
 13 14  1  0
 14 15  2  0
 14 16  1  0
 11  6  1  0
 12  3  2  0
M  END
>  <rName>  (1791) 
bAla_3naphth2yl

>  <PQ_SYMBOL>  (1791) 
bAla_3naphth2yl

>  <FULL_NAME>  (1791) 
3-amino-3-(naphthalen-2-yl)propanoic acid

>  <IUPAC_CONDENSED>  (1791) 
bAla(3-naphth-2-yl)

>  <IUPAC>  (1791) 
3-amino-3-(naphthalen-2-yl)propanoic acid

>  <TYPE>  (1791) 
Backbone

>  <CLASS>  (1791) 
beta

>  <ANALOG>  (1791) 
X

>  <MOL_WT>  (1791) 
215.25199999999995

>  <LOGP>  (1791) 
2.3143000000000002

>  <TPSA>  (1791) 
63.32000000000001

>  <POPULARITY>  (1791) 
7.3

>  <PROTECTED>  (1791) 
TRUE

>  <SMILES>  (1791) 
NC(c2(ccc1(ccccc1c2)))CC(=O)O

>  <INCHIKEY>  (1791) 
JASNXOXPNZWQRV-UHFFFAOYSA-N

$$$$
bAla_3SPh_3F
     RDKit          2D

 13 13  0  0  0  0  0  0  0  0999 V2000
   -1.2291   -1.8553    0.0000 N   0  0  0  0  0  0  0  0  0  0  0  0
   -0.9051   -0.3907    0.0000 C   0  0  0  0  0  0  0  0  0  0  0  0
    0.5252    0.0611    0.0000 C   0  0  0  0  0  0  0  0  0  0  0  0
    0.8491    1.5257    0.0000 C   0  0  0  0  0  0  0  0  0  0  0  0
    2.2795    1.9775    0.0000 C   0  0  0  0  0  0  0  0  0  0  0  0
    3.3859    0.9646    0.0000 C   0  0  0  0  0  0  0  0  0  0  0  0
    3.0620   -0.5000    0.0000 C   0  0  0  0  0  0  0  0  0  0  0  0
    4.1684   -1.5128    0.0000 F   0  0  0  0  0  0  0  0  0  0  0  0
    1.6316   -0.9517    0.0000 C   0  0  0  0  0  0  0  0  0  0  0  0
   -2.0116    0.6222    0.0000 C   0  0  0  0  0  0  0  0  0  0  0  0
   -3.4419    0.1704    0.0000 C   0  0  0  0  0  0  0  0  0  0  0  0
   -3.7658   -1.2942    0.0000 O   0  0  0  0  0  0  0  0  0  0  0  0
   -4.5483    1.1832    0.0000 O   0  0  0  0  0  0  0  0  0  0  0  0
  2  1  1  6
  2  3  1  0
  3  4  2  0
  4  5  1  0
  5  6  2  0
  6  7  1  0
  7  8  1  0
  7  9  2  0
  2 10  1  0
 10 11  1  0
 11 12  2  0
 11 13  1  0
  9  3  1  0
M  END
>  <rName>  (1792) 
bAla_3SPh_3F

>  <PQ_SYMBOL>  (1792) 
bAla_3SPh_3F

>  <FULL_NAME>  (1792) 
(R)-3-amino-3-(3-fluorophenyl)propanoic acid

>  <IUPAC_CONDENSED>  (1792) 
bAla(3S-Ph(3-F))

>  <IUPAC>  (1792) 
(3R)-3-amino-3-(3-fluorophenyl)propanoic acid

>  <TYPE>  (1792) 
Backbone

>  <CLASS>  (1792) 
beta

>  <ANALOG>  (1792) 
X

>  <MOL_WT>  (1792) 
183.18199999999996

>  <LOGP>  (1792) 
1.3002000000000002

>  <TPSA>  (1792) 
63.32000000000001

>  <POPULARITY>  (1792) 
10

>  <PROTECTED>  (1792) 
TRUE

>  <SMILES>  (1792) 
N[C@@H](c1(cccc(F)c1))CC(=O)O

>  <INCHIKEY>  (1792) 
GZNJUJNKZBHINS-MRVPVSSYSA-N

$$$$
bAc6c
     RDKit          2D

 11 11  0  0  0  0  0  0  0  0999 V2000
    0.8408   -1.1159    0.0000 N   0  0  0  0  0  0  0  0  0  0  0  0
   -0.2224   -0.0578    0.0000 C   0  0  0  0  0  0  0  0  0  0  0  0
   -1.0798   -1.2885    0.0000 C   0  0  0  0  0  0  0  0  0  0  0  0
   -2.5744   -1.1613    0.0000 C   0  0  0  0  0  0  0  0  0  0  0  0
   -3.2116    0.1967    0.0000 C   0  0  0  0  0  0  0  0  0  0  0  0
   -2.3541    1.4274    0.0000 C   0  0  0  0  0  0  0  0  0  0  0  0
   -0.8595    1.3002    0.0000 C   0  0  0  0  0  0  0  0  0  0  0  0
    1.0043    0.8055    0.0000 C   0  0  0  0  0  0  0  0  0  0  0  0
    2.3653    0.1748    0.0000 C   0  0  0  0  0  0  0  0  0  0  0  0
    2.4995   -1.3192    0.0000 O   0  0  0  0  0  0  0  0  0  0  0  0
    3.5920    1.0381    0.0000 O   0  0  0  0  0  0  0  0  0  0  0  0
  1  2  1  0
  2  3  1  0
  3  4  1  0
  4  5  1  0
  5  6  1  0
  6  7  1  0
  2  8  1  0
  8  9  1  0
  9 10  2  0
  9 11  1  0
  7  2  1  0
M  END
>  <rName>  (1793) 
bAc6c

>  <PQ_SYMBOL>  (1793) 
bAc6c

>  <FULL_NAME>  (1793) 
2-(1-aminocyclohexyl)acetic acid

>  <IUPAC_CONDENSED>  (1793) 
bAc6c

>  <IUPAC>  (1793) 
2-(1-aminocyclohexyl)acetic acid

>  <TYPE>  (1793) 
Backbone

>  <CLASS>  (1793) 
beta

>  <ANALOG>  (1793) 
X

>  <MOL_WT>  (1793) 
157.21300000000002

>  <LOGP>  (1793) 
1.1227

>  <TPSA>  (1793) 
63.32000000000001

>  <POPULARITY>  (1793) 
10.8

>  <PROTECTED>  (1793) 
TRUE

>  <SMILES>  (1793) 
NC1(CCCCC1)CC(=O)O

>  <INCHIKEY>  (1793) 
JTBWDIQPPZCDHV-UHFFFAOYSA-N

$$$$
5-azaspiro24heptane-6-CO2H
     RDKit          2D

 10 11  0  0  0  0  0  0  0  0999 V2000
    0.1740   -1.5160    0.0000 N   0  0  0  0  0  0  0  0  0  0  0  0
    0.7598   -0.1351    0.0000 C   0  0  0  0  0  0  0  0  0  0  0  0
   -0.3725    0.8487    0.0000 C   0  0  0  0  0  0  0  0  0  0  0  0
   -1.6581    0.0759    0.0000 C   0  0  0  0  0  0  0  0  0  0  0  0
   -3.1469   -0.1073    0.0000 C   0  0  0  0  0  0  0  0  0  0  0  0
   -2.5611    1.2736    0.0000 C   0  0  0  0  0  0  0  0  0  0  0  0
   -1.3203   -1.3856    0.0000 C   0  0  0  0  0  0  0  0  0  0  0  0
    2.2212    0.2027    0.0000 C   0  0  0  0  0  0  0  0  0  0  0  0
    2.6595    1.6372    0.0000 O   0  0  0  0  0  0  0  0  0  0  0  0
    3.2445   -0.8941    0.0000 O   0  0  0  0  0  0  0  0  0  0  0  0
  1  2  1  0
  2  3  1  0
  3  4  1  0
  4  5  1  0
  5  6  1  0
  4  7  1  0
  2  8  1  1
  8  9  2  0
  8 10  1  0
  6  4  1  0
  7  1  1  0
M  END
>  <rName>  (1794) 
5-azaspiro24heptane-6-CO2H

>  <PQ_SYMBOL>  (1794) 
5-azaspiro24heptane-6-CO2H

>  <FULL_NAME>  (1794) 
(S)-5-azaspiro[2.4]heptane-6-carboxylic acid

>  <IUPAC_CONDENSED>  (1794) 
5-azaspiro[2.4]heptane-6-CO2H

>  <IUPAC>  (1794) 
(6S)-5-azaspiro[2.4]heptane-6-carboxylic acid

>  <TYPE>  (1794) 
Backbone

>  <CLASS>  (1794) 
alpha

>  <ANALOG>  (1794) 
Pro

>  <MOL_WT>  (1794) 
141.17000000000002

>  <LOGP>  (1794) 
0.2131

>  <TPSA>  (1794) 
49.33

>  <POPULARITY>  (1794) 
8.1

>  <PROTECTED>  (1794) 
TRUE

>  <SMILES>  (1794) 
N2[C@@H](CC1(CC1)C2)C(=O)O

>  <INCHIKEY>  (1794) 
HWOAMAASOUOLEG-YFKPBYRVSA-N

$$$$
b2Ac3c
     RDKit          2D

  8  8  0  0  0  0  0  0  0  0999 V2000
    1.9631    1.0296    0.0000 N   0  0  0  0  0  0  0  0  0  0  0  0
    0.5166    1.4269    0.0000 C   0  0  0  0  0  0  0  0  0  0  0  0
   -0.5506    0.3729    0.0000 C   0  0  0  0  0  0  0  0  0  0  0  0
   -1.7739    1.2409    0.0000 C   0  0  0  0  0  0  0  0  0  0  0  0
   -1.9140   -0.2526    0.0000 C   0  0  0  0  0  0  0  0  0  0  0  0
    0.3021   -0.8612    0.0000 C   0  0  0  0  0  0  0  0  0  0  0  0
    1.7971   -0.7398    0.0000 O   0  0  0  0  0  0  0  0  0  0  0  0
   -0.3403   -2.2167    0.0000 O   0  0  0  0  0  0  0  0  0  0  0  0
  1  2  1  0
  2  3  1  0
  3  4  1  0
  4  5  1  0
  3  6  1  0
  6  7  2  0
  6  8  1  0
  5  3  1  0
M  END
>  <rName>  (1795) 
b2Ac3c

>  <PQ_SYMBOL>  (1795) 
b2Ac3c

>  <FULL_NAME>  (1795) 
1-(aminomethyl)cyclopropane-1-carboxylic acid

>  <IUPAC_CONDENSED>  (1795) 
b2Ac3c

>  <IUPAC>  (1795) 
1-(aminomethyl)cyclopropanecarboxylic acid

>  <TYPE>  (1795) 
Backbone

>  <CLASS>  (1795) 
beta

>  <ANALOG>  (1795) 
X

>  <MOL_WT>  (1795) 
115.13199999999998

>  <LOGP>  (1795) 
-0.19009999999999977

>  <TPSA>  (1795) 
63.32000000000001

>  <POPULARITY>  (1795) 
13.4

>  <PROTECTED>  (1795) 
TRUE

>  <SMILES>  (1795) 
NCC1(CC1)C(=O)O

>  <INCHIKEY>  (1795) 
MJQJJFZHAQFTDZ-UHFFFAOYSA-N

$$$$
bAla_2Ph
     RDKit          2D

 12 12  0  0  0  0  0  0  0  0999 V2000
    3.1463   -1.7206    0.0000 N   0  0  0  0  0  0  0  0  0  0  0  0
    1.6493   -1.6245    0.0000 C   0  0  0  0  0  0  0  0  0  0  0  0
    0.9841   -0.2801    0.0000 C   0  0  0  0  0  0  0  0  0  0  0  0
   -0.5128   -0.1840    0.0000 C   0  0  0  0  0  0  0  0  0  0  0  0
   -1.3445   -1.4324    0.0000 C   0  0  0  0  0  0  0  0  0  0  0  0
   -2.8414   -1.3363    0.0000 C   0  0  0  0  0  0  0  0  0  0  0  0
   -3.5067    0.0081    0.0000 C   0  0  0  0  0  0  0  0  0  0  0  0
   -2.6750    1.2564    0.0000 C   0  0  0  0  0  0  0  0  0  0  0  0
   -1.1781    1.1604    0.0000 C   0  0  0  0  0  0  0  0  0  0  0  0
    1.8157    0.9682    0.0000 C   0  0  0  0  0  0  0  0  0  0  0  0
    1.1505    2.3126    0.0000 O   0  0  0  0  0  0  0  0  0  0  0  0
    3.3127    0.8721    0.0000 O   0  0  0  0  0  0  0  0  0  0  0  0
  1  2  1  0
  2  3  1  0
  3  4  1  0
  4  5  2  0
  5  6  1  0
  6  7  2  0
  7  8  1  0
  8  9  2  0
  3 10  1  0
 10 11  2  0
 10 12  1  0
  9  4  1  0
M  END
>  <rName>  (1796) 
bAla_2Ph

>  <PQ_SYMBOL>  (1796) 
bAla_2Ph

>  <FULL_NAME>  (1796) 
3-amino-2-phenylpropanoic acid

>  <IUPAC_CONDENSED>  (1796) 
bAla(2-Ph)

>  <IUPAC>  (1796) 
3-amino-2-phenylpropanoic acid

>  <TYPE>  (1796) 
Backbone

>  <CLASS>  (1796) 
beta

>  <ANALOG>  (1796) 
X

>  <MOL_WT>  (1796) 
165.19199999999995

>  <LOGP>  (1796) 
0.8135000000000001

>  <TPSA>  (1796) 
63.32000000000001

>  <POPULARITY>  (1796) 
15.9

>  <PROTECTED>  (1796) 
TRUE

>  <SMILES>  (1796) 
NCC(c1(ccccc1))C(=O)O

>  <INCHIKEY>  (1796) 
LRCYAJZPDFSJPQ-UHFFFAOYSA-N

$$$$
bAla_3RBn_24_5triF
     RDKit          2D

 16 16  0  0  0  0  0  0  0  0999 V2000
   -1.5978    1.2314    0.0000 N   0  0  0  0  0  0  0  0  0  0  0  0
   -1.8564   -0.2461    0.0000 C   0  0  0  0  0  0  0  0  0  0  0  0
   -0.7061   -1.2089    0.0000 C   0  0  0  0  0  0  0  0  0  0  0  0
    0.7028   -0.6941    0.0000 C   0  0  0  0  0  0  0  0  0  0  0  0
    0.9614    0.7835    0.0000 C   0  0  0  0  0  0  0  0  0  0  0  0
    2.3703    1.2983    0.0000 C   0  0  0  0  0  0  0  0  0  0  0  0
    2.6289    2.7758    0.0000 F   0  0  0  0  0  0  0  0  0  0  0  0
    3.5205    0.3356    0.0000 C   0  0  0  0  0  0  0  0  0  0  0  0
    4.9294    0.8504    0.0000 F   0  0  0  0  0  0  0  0  0  0  0  0
    3.2619   -1.1420    0.0000 C   0  0  0  0  0  0  0  0  0  0  0  0
    1.8531   -1.6568    0.0000 C   0  0  0  0  0  0  0  0  0  0  0  0
    1.5944   -3.1343    0.0000 F   0  0  0  0  0  0  0  0  0  0  0  0
   -3.2653   -0.7610    0.0000 C   0  0  0  0  0  0  0  0  0  0  0  0
   -4.4156    0.2018    0.0000 C   0  0  0  0  0  0  0  0  0  0  0  0
   -4.1570    1.6793    0.0000 O   0  0  0  0  0  0  0  0  0  0  0  0
   -5.8245   -0.3130    0.0000 O   0  0  0  0  0  0  0  0  0  0  0  0
  2  1  1  6
  2  3  1  0
  3  4  1  0
  4  5  1  0
  5  6  2  0
  6  7  1  0
  6  8  1  0
  8  9  1  0
  8 10  2  0
 10 11  1  0
 11 12  1  0
  2 13  1  0
 13 14  1  0
 14 15  2  0
 14 16  1  0
 11  4  2  0
M  END
>  <rName>  (1797) 
bAla_3RBn_24_5triF

>  <PQ_SYMBOL>  (1797) 
bAla_3RBn_24_5triF

>  <FULL_NAME>  (1797) 
(R)-3-amino-4-(2,4,5-trifluorophenyl)butanoic acid

>  <IUPAC_CONDENSED>  (1797) 
bAla(3R-Bn(2,4,5-triF))

>  <IUPAC>  (1797) 
(3R)-3-amino-4-(2,4,5-trifluorophenyl)butanoic acid

>  <TYPE>  (1797) 
Backbone

>  <CLASS>  (1797) 
beta

>  <ANALOG>  (1797) 
Phe

>  <MOL_WT>  (1797) 
233.18899999999996

>  <LOGP>  (1797) 
1.4484000000000001

>  <TPSA>  (1797) 
63.32000000000001

>  <POPULARITY>  (1797) 
9.8

>  <PROTECTED>  (1797) 
TRUE

>  <SMILES>  (1797) 
N[C@H](Cc1(cc(F)c(F)cc1F))CC(=O)O

>  <INCHIKEY>  (1797) 
KEFQQJVYCWLKPL-ZCFIWIBFSA-N

$$$$
bAla_2OH
     RDKit          2D

  7  6  0  0  0  0  0  0  0  0999 V2000
    2.7865    0.2956    0.0000 N   0  0  0  0  0  0  0  0  0  0  0  0
    1.3548    0.7431    0.0000 C   0  0  0  0  0  0  0  0  0  0  0  0
    0.2514   -0.2730    0.0000 C   0  0  0  0  0  0  0  0  0  0  0  0
    0.5797   -1.7367    0.0000 O   0  0  0  0  0  0  0  0  0  0  0  0
   -1.1803    0.1745    0.0000 C   0  0  0  0  0  0  0  0  0  0  0  0
   -1.5086    1.6381    0.0000 O   0  0  0  0  0  0  0  0  0  0  0  0
   -2.2837   -0.8417    0.0000 O   0  0  0  0  0  0  0  0  0  0  0  0
  1  2  1  0
  2  3  1  0
  3  4  1  0
  3  5  1  0
  5  6  2  0
  5  7  1  0
M  END
>  <rName>  (1798) 
bAla_2OH

>  <PQ_SYMBOL>  (1798) 
bAla_2OH

>  <FULL_NAME>  (1798) 
3-amino-2-hydroxypropanoic acid

>  <IUPAC_CONDENSED>  (1798) 
bAla(2-OH)

>  <IUPAC>  (1798) 
3-amino-2-hydroxypropanoic acid

>  <TYPE>  (1798) 
Backbone

>  <CLASS>  (1798) 
beta

>  <ANALOG>  (1798) 
X

>  <MOL_WT>  (1798) 
105.09299999999999

>  <LOGP>  (1798) 
-1.6093999999999997

>  <TPSA>  (1798) 
83.55

>  <POPULARITY>  (1798) 
15.6

>  <PROTECTED>  (1798) 
TRUE

>  <SMILES>  (1798) 
NCC(O)C(=O)O

>  <INCHIKEY>  (1798) 
BMYNFMYTOJXKLE-UHFFFAOYSA-N

$$$$
D-Tyr_3F
     RDKit          2D

 14 14  0  0  0  0  0  0  0  0999 V2000
   -2.0094    1.6916    0.0000 N   0  0  0  0  0  0  0  0  0  0  0  0
   -2.3243    0.2250    0.0000 C   0  0  0  0  0  0  0  0  0  0  0  0
   -1.2116   -0.7809    0.0000 C   0  0  0  0  0  0  0  0  0  0  0  0
    0.2159   -0.3203    0.0000 C   0  0  0  0  0  0  0  0  0  0  0  0
    0.5308    1.1463    0.0000 C   0  0  0  0  0  0  0  0  0  0  0  0
    1.9583    1.6069    0.0000 C   0  0  0  0  0  0  0  0  0  0  0  0
    3.0710    0.6009    0.0000 C   0  0  0  0  0  0  0  0  0  0  0  0
    4.4985    1.0615    0.0000 O   0  0  0  0  0  0  0  0  0  0  0  0
    2.7561   -0.8657    0.0000 C   0  0  0  0  0  0  0  0  0  0  0  0
    3.8688   -1.8716    0.0000 F   0  0  0  0  0  0  0  0  0  0  0  0
    1.3286   -1.3263    0.0000 C   0  0  0  0  0  0  0  0  0  0  0  0
   -3.7518   -0.2356    0.0000 C   0  0  0  0  0  0  0  0  0  0  0  0
   -4.0666   -1.7022    0.0000 O   0  0  0  0  0  0  0  0  0  0  0  0
   -4.8644    0.7704    0.0000 O   0  0  0  0  0  0  0  0  0  0  0  0
  2  1  1  6
  2  3  1  0
  3  4  1  0
  4  5  1  0
  5  6  2  0
  6  7  1  0
  7  8  1  0
  7  9  2  0
  9 10  1  0
  9 11  1  0
  2 12  1  0
 12 13  2  0
 12 14  1  0
 11  4  2  0
M  END
>  <rName>  (1799) 
D-Tyr_3F

>  <PQ_SYMBOL>  (1799) 
D-Tyr_3F

>  <FULL_NAME>  (1799) 
(R)-2-amino-3-(3-fluoro-4-hydroxyphenyl)propanoic acid

>  <IUPAC_CONDENSED>  (1799) 
D-Tyr(3-F)

>  <IUPAC>  (1799) 
(2R)-2-amino-3-(3-fluoro-4-hydroxyphenyl)propanoic acid

>  <TYPE>  (1799) 
Backbone

>  <CLASS>  (1799) 
alpha

>  <ANALOG>  (1799) 
Tyr

>  <MOL_WT>  (1799) 
199.18099999999995

>  <LOGP>  (1799) 
0.48570000000000013

>  <TPSA>  (1799) 
83.55

>  <POPULARITY>  (1799) 
3.8

>  <PROTECTED>  (1799) 
TRUE

>  <SMILES>  (1799) 
N[C@H](Cc1(ccc(O)c(F)c1))C(=O)O

>  <INCHIKEY>  (1799) 
VIIAUOZUUGXERI-SSDOTTSWSA-N

$$$$
D-Phg_3OH
     RDKit          2D

 12 12  0  0  0  0  0  0  0  0999 V2000
   -1.5885   -2.1920    0.0000 N   0  0  0  0  0  0  0  0  0  0  0  0
   -1.3991   -0.7040    0.0000 C   0  0  0  0  0  0  0  0  0  0  0  0
   -0.0158   -0.1240    0.0000 C   0  0  0  0  0  0  0  0  0  0  0  0
    0.1736    1.3640    0.0000 C   0  0  0  0  0  0  0  0  0  0  0  0
    1.5569    1.9440    0.0000 C   0  0  0  0  0  0  0  0  0  0  0  0
    2.7509    1.0360    0.0000 C   0  0  0  0  0  0  0  0  0  0  0  0
    2.5615   -0.4520    0.0000 C   0  0  0  0  0  0  0  0  0  0  0  0
    3.7555   -1.3600    0.0000 O   0  0  0  0  0  0  0  0  0  0  0  0
    1.1782   -1.0320    0.0000 C   0  0  0  0  0  0  0  0  0  0  0  0
   -2.5931    0.2040    0.0000 C   0  0  0  0  0  0  0  0  0  0  0  0
   -2.4037    1.6920    0.0000 O   0  0  0  0  0  0  0  0  0  0  0  0
   -3.9764   -0.3760    0.0000 O   0  0  0  0  0  0  0  0  0  0  0  0
  2  1  1  1
  2  3  1  0
  3  4  2  0
  4  5  1  0
  5  6  2  0
  6  7  1  0
  7  8  1  0
  7  9  2  0
  2 10  1  0
 10 11  2  0
 10 12  1  0
  9  3  1  0
M  END
>  <rName>  (1800) 
D-Phg_3OH

>  <PQ_SYMBOL>  (1800) 
D-Phg_3OH

>  <FULL_NAME>  (1800) 
(R)-2-amino-2-(3-hydroxyphenyl)acetic acid

>  <IUPAC_CONDENSED>  (1800) 
D-Phg(3-OH)

>  <IUPAC>  (1800) 
(2R)-2-amino-2-(3-hydroxyphenyl)acetic acid

>  <TYPE>  (1800) 
Backbone

>  <CLASS>  (1800) 
alpha

>  <ANALOG>  (1800) 
X

>  <MOL_WT>  (1800) 
167.16399999999996

>  <LOGP>  (1800) 
0.4766

>  <TPSA>  (1800) 
83.55

>  <POPULARITY>  (1800) 
8.4

>  <PROTECTED>  (1800) 
TRUE

>  <SMILES>  (1800) 
N[C@H](c1(cccc(O)c1))C(=O)O

>  <INCHIKEY>  (1800) 
DQLYTFPAEVJTFM-SSDOTTSWSA-N

$$$$
D-Phg_3OMe
     RDKit          2D

 13 13  0  0  0  0  0  0  0  0999 V2000
   -1.4877   -2.2692    0.0000 N   0  0  0  0  0  0  0  0  0  0  0  0
   -1.5624   -0.7710    0.0000 C   0  0  0  0  0  0  0  0  0  0  0  0
   -0.3023    0.0427    0.0000 C   0  0  0  0  0  0  0  0  0  0  0  0
   -0.3769    1.5408    0.0000 C   0  0  0  0  0  0  0  0  0  0  0  0
    0.8832    2.3546    0.0000 C   0  0  0  0  0  0  0  0  0  0  0  0
    2.2179    1.6702    0.0000 C   0  0  0  0  0  0  0  0  0  0  0  0
    2.2926    0.1720    0.0000 C   0  0  0  0  0  0  0  0  0  0  0  0
    3.6273   -0.5124    0.0000 O   0  0  0  0  0  0  0  0  0  0  0  0
    3.7020   -2.0105    0.0000 C   0  0  0  0  0  0  0  0  0  0  0  0
    1.0325   -0.6417    0.0000 C   0  0  0  0  0  0  0  0  0  0  0  0
   -2.8971   -0.0866    0.0000 C   0  0  0  0  0  0  0  0  0  0  0  0
   -2.9718    1.4115    0.0000 O   0  0  0  0  0  0  0  0  0  0  0  0
   -4.1572   -0.9004    0.0000 O   0  0  0  0  0  0  0  0  0  0  0  0
  2  1  1  1
  2  3  1  0
  3  4  2  0
  4  5  1  0
  5  6  2  0
  6  7  1  0
  7  8  1  0
  8  9  1  0
  7 10  2  0
  2 11  1  0
 11 12  2  0
 11 13  1  0
 10  3  1  0
M  END
>  <rName>  (1801) 
D-Phg_3OMe

>  <PQ_SYMBOL>  (1801) 
D-Phg_3OMe

>  <FULL_NAME>  (1801) 
(R)-2-amino-2-(3-methoxyphenyl)acetic acid

>  <IUPAC_CONDENSED>  (1801) 
D-Phg(3-OMe)

>  <IUPAC>  (1801) 
(2R)-2-amino-2-(3-methoxyphenyl)acetic acid

>  <TYPE>  (1801) 
Backbone

>  <CLASS>  (1801) 
alpha

>  <ANALOG>  (1801) 
X

>  <MOL_WT>  (1801) 
181.19099999999997

>  <LOGP>  (1801) 
0.7796000000000001

>  <TPSA>  (1801) 
72.55

>  <POPULARITY>  (1801) 
7.8

>  <PROTECTED>  (1801) 
TRUE

>  <SMILES>  (1801) 
N[C@H](c1(cccc(OC)c1))C(=O)O

>  <INCHIKEY>  (1801) 
UMKVNPOZWRHJPM-MRVPVSSYSA-N

$$$$
D-Gly_cBu
     RDKit          2D

  9  9  0  0  0  0  0  0  0  0999 V2000
   -0.9174   -2.0793    0.0000 N   0  0  0  0  0  0  0  0  0  0  0  0
   -0.5683   -0.6205    0.0000 C   0  0  0  0  0  0  0  0  0  0  0  0
    0.8696   -0.1934    0.0000 C   0  0  0  0  0  0  0  0  0  0  0  0
    1.5845    1.1253    0.0000 C   0  0  0  0  0  0  0  0  0  0  0  0
    2.9032    0.4104    0.0000 C   0  0  0  0  0  0  0  0  0  0  0  0
    2.1884   -0.9083    0.0000 C   0  0  0  0  0  0  0  0  0  0  0  0
   -1.6571    0.4113    0.0000 C   0  0  0  0  0  0  0  0  0  0  0  0
   -1.3079    1.8701    0.0000 O   0  0  0  0  0  0  0  0  0  0  0  0
   -3.0950   -0.0157    0.0000 O   0  0  0  0  0  0  0  0  0  0  0  0
  2  1  1  1
  2  3  1  0
  3  4  1  0
  4  5  1  0
  5  6  1  0
  2  7  1  0
  7  8  2  0
  7  9  1  0
  6  3  1  0
M  END
>  <rName>  (1802) 
D-Gly_cBu

>  <PQ_SYMBOL>  (1802) 
D-Gly_cBu

>  <FULL_NAME>  (1802) 
(R)-2-amino-2-cyclobutylacetic acid

>  <IUPAC_CONDENSED>  (1802) 
D-Gly(cBu)

>  <IUPAC>  (1802) 
(2R)-2-amino-2-cyclobutylacetic acid

>  <TYPE>  (1802) 
Backbone

>  <CLASS>  (1802) 
alpha

>  <ANALOG>  (1802) 
X

>  <MOL_WT>  (1802) 
129.15900000000002

>  <LOGP>  (1802) 
0.19839999999999985

>  <TPSA>  (1802) 
63.32000000000001

>  <POPULARITY>  (1802) 
4.8

>  <PROTECTED>  (1802) 
TRUE

>  <SMILES>  (1802) 
N[C@H](C1(CCC1))C(=O)O

>  <INCHIKEY>  (1802) 
FZENWFNLDOYYFB-RXMQYKEDSA-N

$$$$
bAib
     RDKit          2D

  7  6  0  0  0  0  0  0  0  0999 V2000
   -2.2500   -0.5567    0.0000 N   0  0  0  0  0  0  0  0  0  0  0  0
   -1.5000    0.7423    0.0000 C   0  0  0  0  0  0  0  0  0  0  0  0
   -0.0000    0.7423    0.0000 C   0  0  0  0  0  0  0  0  0  0  0  0
    0.7500    2.0413    0.0000 C   0  0  0  0  0  0  0  0  0  0  0  0
    0.7500   -0.5567    0.0000 C   0  0  0  0  0  0  0  0  0  0  0  0
    2.2500   -0.5567    0.0000 O   0  0  0  0  0  0  0  0  0  0  0  0
    0.0000   -1.8558    0.0000 O   0  0  0  0  0  0  0  0  0  0  0  0
  1  2  1  0
  2  3  1  0
  3  4  1  0
  3  5  1  0
  5  6  2  0
  5  7  1  0
M  END
>  <rName>  (1803) 
bAib

>  <PQ_SYMBOL>  (1803) 
bAib

>  <FULL_NAME>  (1803) 
3-amino-2-methylpropanoic acid

>  <IUPAC_CONDENSED>  (1803) 
bAib

>  <IUPAC>  (1803) 
3-amino-2-methylpropanoic acid

>  <TYPE>  (1803) 
Backbone

>  <CLASS>  (1803) 
beta

>  <ANALOG>  (1803) 
Ala

>  <MOL_WT>  (1803) 
103.12099999999998

>  <LOGP>  (1803) 
-0.3342000000000001

>  <TPSA>  (1803) 
63.32000000000001

>  <POPULARITY>  (1803) 
18.1

>  <PROTECTED>  (1803) 
TRUE

>  <SMILES>  (1803) 
NCC(C)C(=O)O

>  <INCHIKEY>  (1803) 
QCHPKSFMDHPSNR-UHFFFAOYSA-N

$$$$
aMebAla_3Me
     RDKit          2D

  8  7  0  0  0  0  0  0  0  0999 V2000
    2.4305   -0.6752    0.0000 N   0  0  0  0  0  0  0  0  0  0  0  0
    1.1374    0.0849    0.0000 C   0  0  0  0  0  0  0  0  0  0  0  0
    1.8975    1.3780    0.0000 C   0  0  0  0  0  0  0  0  0  0  0  0
    0.3772   -1.2083    0.0000 C   0  0  0  0  0  0  0  0  0  0  0  0
   -0.1558    0.8450    0.0000 C   0  0  0  0  0  0  0  0  0  0  0  0
   -1.4606    0.1051    0.0000 C   0  0  0  0  0  0  0  0  0  0  0  0
   -1.4723   -1.3948    0.0000 O   0  0  0  0  0  0  0  0  0  0  0  0
   -2.7538    0.8653    0.0000 O   0  0  0  0  0  0  0  0  0  0  0  0
  1  2  1  0
  2  3  1  0
  2  4  1  0
  2  5  1  0
  5  6  1  0
  6  7  2  0
  6  8  1  0
M  END
>  <rName>  (1804) 
aMebAla_3Me

>  <PQ_SYMBOL>  (1804) 
aMebAla_3Me

>  <FULL_NAME>  (1804) 
3-amino-3-methylbutanoic acid

>  <IUPAC_CONDENSED>  (1804) 
aMebAla(3-Me)

>  <IUPAC>  (1804) 
3-amino-3-methylbutanoic acid

>  <TYPE>  (1804) 
Backbone

>  <CLASS>  (1804) 
beta

>  <ANALOG>  (1804) 
Ala

>  <MOL_WT>  (1804) 
117.14799999999998

>  <LOGP>  (1804) 
0.19839999999999985

>  <TPSA>  (1804) 
63.32000000000001

>  <POPULARITY>  (1804) 
14.1

>  <PROTECTED>  (1804) 
TRUE

>  <SMILES>  (1804) 
NC(C)(C)CC(=O)O

>  <INCHIKEY>  (1804) 
NFQAIWOMJQWGSS-UHFFFAOYSA-N

$$$$
Phe_4Ph_3Cl
     RDKit          2D

 19 20  0  0  0  0  0  0  0  0999 V2000
   -3.4758    1.7665    0.0000 N   0  0  0  0  0  0  0  0  0  0  0  0
   -4.1145    0.4093    0.0000 C   0  0  0  0  0  0  0  0  0  0  0  0
   -3.2584   -0.8224    0.0000 C   0  0  0  0  0  0  0  0  0  0  0  0
   -1.7637   -0.6969    0.0000 C   0  0  0  0  0  0  0  0  0  0  0  0
   -1.1250    0.6603    0.0000 C   0  0  0  0  0  0  0  0  0  0  0  0
    0.3698    0.7858    0.0000 C   0  0  0  0  0  0  0  0  0  0  0  0
    1.2258   -0.4460    0.0000 C   0  0  0  0  0  0  0  0  0  0  0  0
    0.5871   -1.8032    0.0000 C   0  0  0  0  0  0  0  0  0  0  0  0
   -0.9076   -1.9287    0.0000 C   0  0  0  0  0  0  0  0  0  0  0  0
    2.7206   -0.3205    0.0000 C   0  0  0  0  0  0  0  0  0  0  0  0
    3.5766   -1.5522    0.0000 C   0  0  0  0  0  0  0  0  0  0  0  0
    5.0713   -1.4268    0.0000 C   0  0  0  0  0  0  0  0  0  0  0  0
    5.7100   -0.0695    0.0000 C   0  0  0  0  0  0  0  0  0  0  0  0
    4.8540    1.1622    0.0000 C   0  0  0  0  0  0  0  0  0  0  0  0
    5.4927    2.5194    0.0000 Cl  0  0  0  0  0  0  0  0  0  0  0  0
    3.3593    1.0367    0.0000 C   0  0  0  0  0  0  0  0  0  0  0  0
   -5.6092    0.2838    0.0000 C   0  0  0  0  0  0  0  0  0  0  0  0
   -6.2479   -1.0734    0.0000 O   0  0  0  0  0  0  0  0  0  0  0  0
   -6.4652    1.5156    0.0000 O   0  0  0  0  0  0  0  0  0  0  0  0
  2  1  1  1
  2  3  1  0
  3  4  1  0
  4  5  1  0
  5  6  2  0
  6  7  1  0
  7  8  2  0
  8  9  1  0
  7 10  1  0
 10 11  2  0
 11 12  1  0
 12 13  2  0
 13 14  1  0
 14 15  1  0
 14 16  2  0
  2 17  1  0
 17 18  2  0
 17 19  1  0
  9  4  2  0
 16 10  1  0
M  END
>  <rName>  (1805) 
Phe_4Ph_3Cl

>  <PQ_SYMBOL>  (1805) 
Phe_4Ph_3Cl

>  <FULL_NAME>  (1805) 
(S)-2-amino-3-(3'-chloro-[1,1'-biphenyl]-4-yl)propanoic acid

>  <IUPAC_CONDENSED>  (1805) 
Phe(4-Ph(3-Cl))

>  <IUPAC>  (1805) 
(2S)-2-amino-3-(4-(3-chlorophenyl)phenyl)propanoic acid

>  <TYPE>  (1805) 
Backbone

>  <CLASS>  (1805) 
alpha

>  <ANALOG>  (1805) 
Phe

>  <MOL_WT>  (1805) 
275.735

>  <LOGP>  (1805) 
2.961400000000001

>  <TPSA>  (1805) 
63.32000000000001

>  <POPULARITY>  (1805) 
4.8

>  <PROTECTED>  (1805) 
TRUE

>  <SMILES>  (1805) 
N[C@@H](Cc1(ccc(cc1)c2(cccc(Cl)c2)))C(=O)O

>  <INCHIKEY>  (1805) 
TYODQDGKOZCVHK-AWEZNQCLSA-N

$$$$
Phe_23diCl
     RDKit          2D

 14 14  0  0  0  0  0  0  0  0999 V2000
   -1.9599    1.7683    0.0000 N   0  0  0  0  0  0  0  0  0  0  0  0
   -2.1168    0.2766    0.0000 C   0  0  0  0  0  0  0  0  0  0  0  0
   -0.9034   -0.6052    0.0000 C   0  0  0  0  0  0  0  0  0  0  0  0
    0.4670    0.0047    0.0000 C   0  0  0  0  0  0  0  0  0  0  0  0
    0.6239    1.4965    0.0000 C   0  0  0  0  0  0  0  0  0  0  0  0
    1.9943    2.1065    0.0000 C   0  0  0  0  0  0  0  0  0  0  0  0
    3.2078    1.2247    0.0000 C   0  0  0  0  0  0  0  0  0  0  0  0
    3.0508   -0.2671    0.0000 C   0  0  0  0  0  0  0  0  0  0  0  0
    4.2643   -1.1489    0.0000 Cl  0  0  0  0  0  0  0  0  0  0  0  0
    1.6804   -0.8771    0.0000 C   0  0  0  0  0  0  0  0  0  0  0  0
    1.5235   -2.3688    0.0000 Cl  0  0  0  0  0  0  0  0  0  0  0  0
   -3.4872   -0.3334    0.0000 C   0  0  0  0  0  0  0  0  0  0  0  0
   -3.6441   -1.8252    0.0000 O   0  0  0  0  0  0  0  0  0  0  0  0
   -4.7006    0.5484    0.0000 O   0  0  0  0  0  0  0  0  0  0  0  0
  2  1  1  1
  2  3  1  0
  3  4  1  0
  4  5  2  0
  5  6  1  0
  6  7  2  0
  7  8  1  0
  8  9  1  0
  8 10  2  0
 10 11  1  0
  2 12  1  0
 12 13  2  0
 12 14  1  0
 10  4  1  0
M  END
>  <rName>  (1806) 
Phe_23diCl

>  <PQ_SYMBOL>  (1806) 
Phe_23diCl

>  <FULL_NAME>  (1806) 
(S)-2-amino-3-(2,3-dichlorophenyl)propanoic acid

>  <IUPAC_CONDENSED>  (1806) 
Phe(2,3-diCl)

>  <IUPAC>  (1806) 
(2S)-2-amino-3-(2,3-dichlorophenyl)propanoic acid

>  <TYPE>  (1806) 
Backbone

>  <CLASS>  (1806) 
alpha

>  <ANALOG>  (1806) 
Phe

>  <MOL_WT>  (1806) 
234.08199999999997

>  <LOGP>  (1806) 
1.9478000000000002

>  <TPSA>  (1806) 
63.32000000000001

>  <POPULARITY>  (1806) 
3.1

>  <PROTECTED>  (1806) 
TRUE

>  <SMILES>  (1806) 
N[C@@H](Cc1(cccc(Cl)c1Cl))C(=O)O

>  <INCHIKEY>  (1806) 
NVDAAIHKUHFKOL-ZETCQYMHSA-N

$$$$
D-Phe_3OCF3
     RDKit          2D

 17 17  0  0  0  0  0  0  0  0999 V2000
   -3.3907    1.4014    0.0000 N   0  0  0  0  0  0  0  0  0  0  0  0
   -3.1013   -0.0704    0.0000 C   0  0  0  0  0  0  0  0  0  0  0  0
   -1.6819   -0.5556    0.0000 C   0  0  0  0  0  0  0  0  0  0  0  0
   -0.5520    0.4310    0.0000 C   0  0  0  0  0  0  0  0  0  0  0  0
   -0.8415    1.9028    0.0000 C   0  0  0  0  0  0  0  0  0  0  0  0
    0.2884    2.8894    0.0000 C   0  0  0  0  0  0  0  0  0  0  0  0
    1.7077    2.4042    0.0000 C   0  0  0  0  0  0  0  0  0  0  0  0
    1.9972    0.9324    0.0000 C   0  0  0  0  0  0  0  0  0  0  0  0
    3.4166    0.4472    0.0000 O   0  0  0  0  0  0  0  0  0  0  0  0
    3.7060   -1.0246    0.0000 C   0  0  0  0  0  0  0  0  0  0  0  0
    3.9955   -2.4964    0.0000 F   0  0  0  0  0  0  0  0  0  0  0  0
    5.1778   -0.7352    0.0000 F   0  0  0  0  0  0  0  0  0  0  0  0
    2.2342   -1.3141    0.0000 F   0  0  0  0  0  0  0  0  0  0  0  0
    0.8673   -0.0542    0.0000 C   0  0  0  0  0  0  0  0  0  0  0  0
   -4.2312   -1.0570    0.0000 C   0  0  0  0  0  0  0  0  0  0  0  0
   -3.9417   -2.5288    0.0000 O   0  0  0  0  0  0  0  0  0  0  0  0
   -5.6505   -0.5718    0.0000 O   0  0  0  0  0  0  0  0  0  0  0  0
  2  1  1  6
  2  3  1  0
  3  4  1  0
  4  5  1  0
  5  6  2  0
  6  7  1  0
  7  8  2  0
  8  9  1  0
  9 10  1  0
 10 11  1  0
 10 12  1  0
 10 13  1  0
  8 14  1  0
  2 15  1  0
 15 16  2  0
 15 17  1  0
 14  4  2  0
M  END
>  <rName>  (1807) 
D-Phe_3OCF3

>  <PQ_SYMBOL>  (1807) 
D-Phe_3OCF3

>  <FULL_NAME>  (1807) 
(R)-2-amino-3-(3-(trifluoromethoxy)phenyl)propanoic acid

>  <IUPAC_CONDENSED>  (1807) 
D-Phe(3-OCF3)

>  <IUPAC>  (1807) 
(2R)-2-amino-3-(3-((trifluoromethyl)oxy)phenyl)propanoic acid

>  <TYPE>  (1807) 
Backbone

>  <CLASS>  (1807) 
alpha

>  <ANALOG>  (1807) 
Tyr

>  <MOL_WT>  (1807) 
249.18799999999993

>  <LOGP>  (1807) 
1.5396

>  <TPSA>  (1807) 
72.55

>  <POPULARITY>  (1807) 
3.1

>  <PROTECTED>  (1807) 
TRUE

>  <SMILES>  (1807) 
N[C@H](Cc1(cccc(OC(F)(F)F)c1))C(=O)O

>  <INCHIKEY>  (1807) 
NIONQVYUGGCUHI-MRVPVSSYSA-N

$$$$
D-hPhe_3F
     RDKit          2D

 14 14  0  0  0  0  0  0  0  0999 V2000
   -2.9179   -2.0082    0.0000 N   0  0  0  0  0  0  0  0  0  0  0  0
   -2.7604   -0.5165    0.0000 C   0  0  0  0  0  0  0  0  0  0  0  0
   -1.3898    0.0929    0.0000 C   0  0  0  0  0  0  0  0  0  0  0  0
   -0.1767   -0.7894    0.0000 C   0  0  0  0  0  0  0  0  0  0  0  0
    1.1939   -0.1800    0.0000 C   0  0  0  0  0  0  0  0  0  0  0  0
    1.3515    1.3117    0.0000 C   0  0  0  0  0  0  0  0  0  0  0  0
    2.7221    1.9211    0.0000 C   0  0  0  0  0  0  0  0  0  0  0  0
    3.9352    1.0388    0.0000 C   0  0  0  0  0  0  0  0  0  0  0  0
    3.7777   -0.4529    0.0000 C   0  0  0  0  0  0  0  0  0  0  0  0
    4.9907   -1.3352    0.0000 F   0  0  0  0  0  0  0  0  0  0  0  0
    2.4070   -1.0623    0.0000 C   0  0  0  0  0  0  0  0  0  0  0  0
   -3.9735    0.3658    0.0000 C   0  0  0  0  0  0  0  0  0  0  0  0
   -3.8159    1.8575    0.0000 O   0  0  0  0  0  0  0  0  0  0  0  0
   -5.3441   -0.2436    0.0000 O   0  0  0  0  0  0  0  0  0  0  0  0
  2  1  1  1
  2  3  1  0
  3  4  1  0
  4  5  1  0
  5  6  2  0
  6  7  1  0
  7  8  2  0
  8  9  1  0
  9 10  1  0
  9 11  2  0
  2 12  1  0
 12 13  2  0
 12 14  1  0
 11  5  1  0
M  END
>  <rName>  (1808) 
D-hPhe_3F

>  <PQ_SYMBOL>  (1808) 
D-hPhe_3F

>  <FULL_NAME>  (1808) 
(R)-2-amino-4-(3-fluorophenyl)butanoic acid

>  <IUPAC_CONDENSED>  (1808) 
D-hPhe(3-F)

>  <IUPAC>  (1808) 
(2R)-2-amino-4-(3-fluorophenyl)butanoic acid

>  <TYPE>  (1808) 
Backbone

>  <CLASS>  (1808) 
alpha

>  <ANALOG>  (1808) 
Phe

>  <MOL_WT>  (1808) 
197.20899999999997

>  <LOGP>  (1808) 
1.1702

>  <TPSA>  (1808) 
63.32000000000001

>  <POPULARITY>  (1808) 
6.6

>  <PROTECTED>  (1808) 
TRUE

>  <SMILES>  (1808) 
N[C@H](CCc1(cccc(F)c1))C(=O)O

>  <INCHIKEY>  (1808) 
IBUPJVAZBFPWLJ-SECBINFHSA-N

$$$$
D-Tyr_CF3
     RDKit          2D

 17 17  0  0  0  0  0  0  0  0999 V2000
   -3.1457    1.6694    0.0000 N   0  0  0  0  0  0  0  0  0  0  0  0
   -3.4800    0.2071    0.0000 C   0  0  0  0  0  0  0  0  0  0  0  0
   -2.3807   -0.8135    0.0000 C   0  0  0  0  0  0  0  0  0  0  0  0
   -0.9472   -0.3718    0.0000 C   0  0  0  0  0  0  0  0  0  0  0  0
   -0.6130    1.0905    0.0000 C   0  0  0  0  0  0  0  0  0  0  0  0
    0.8205    1.5322    0.0000 C   0  0  0  0  0  0  0  0  0  0  0  0
    1.9198    0.5116    0.0000 C   0  0  0  0  0  0  0  0  0  0  0  0
    3.3533    0.9532    0.0000 O   0  0  0  0  0  0  0  0  0  0  0  0
    4.4525   -0.0674    0.0000 C   0  0  0  0  0  0  0  0  0  0  0  0
    5.5518   -1.0880    0.0000 F   0  0  0  0  0  0  0  0  0  0  0  0
    5.4731    1.0319    0.0000 F   0  0  0  0  0  0  0  0  0  0  0  0
    3.4319   -1.1666    0.0000 F   0  0  0  0  0  0  0  0  0  0  0  0
    1.5855   -0.9507    0.0000 C   0  0  0  0  0  0  0  0  0  0  0  0
    0.1520   -1.3924    0.0000 C   0  0  0  0  0  0  0  0  0  0  0  0
   -4.9135   -0.2346    0.0000 C   0  0  0  0  0  0  0  0  0  0  0  0
   -5.2477   -1.6969    0.0000 O   0  0  0  0  0  0  0  0  0  0  0  0
   -6.0127    0.7860    0.0000 O   0  0  0  0  0  0  0  0  0  0  0  0
  2  1  1  6
  2  3  1  0
  3  4  1  0
  4  5  1  0
  5  6  2  0
  6  7  1  0
  7  8  1  0
  8  9  1  0
  9 10  1  0
  9 11  1  0
  9 12  1  0
  7 13  2  0
 13 14  1  0
  2 15  1  0
 15 16  2  0
 15 17  1  0
 14  4  2  0
M  END
>  <rName>  (1809) 
D-Tyr_CF3

>  <PQ_SYMBOL>  (1809) 
D-Tyr_CF3

>  <FULL_NAME>  (1809) 
(R)-2-amino-3-(4-(trifluoromethoxy)phenyl)propanoic acid

>  <IUPAC_CONDENSED>  (1809) 
D-Tyr(CF3)

>  <IUPAC>  (1809) 
(2R)-2-amino-3-(4-((trifluoromethyl)oxy)phenyl)propanoic acid

>  <TYPE>  (1809) 
Backbone

>  <CLASS>  (1809) 
alpha

>  <ANALOG>  (1809) 
Tyr

>  <MOL_WT>  (1809) 
249.18799999999996

>  <LOGP>  (1809) 
1.5396000000000003

>  <TPSA>  (1809) 
72.55

>  <POPULARITY>  (1809) 
3.2

>  <PROTECTED>  (1809) 
TRUE

>  <SMILES>  (1809) 
N[C@H](Cc1(ccc(OC(F)(F)F)cc1))C(=O)O

>  <INCHIKEY>  (1809) 
YZXUCQCJZKJMIR-MRVPVSSYSA-N

$$$$
NMe-6-Ahx
     RDKit          2D

 10  9  0  0  0  0  0  0  0  0999 V2000
   -4.2653    0.4843    0.0000 N   0  0  0  0  0  0  0  0  0  0  0  0
   -5.6074   -0.1857    0.0000 C   0  0  0  0  0  0  0  0  0  0  0  0
   -3.0141   -0.3430    0.0000 C   0  0  0  0  0  0  0  0  0  0  0  0
   -1.6720    0.3269    0.0000 C   0  0  0  0  0  0  0  0  0  0  0  0
   -0.4208   -0.5004    0.0000 C   0  0  0  0  0  0  0  0  0  0  0  0
    0.9213    0.1695    0.0000 C   0  0  0  0  0  0  0  0  0  0  0  0
    2.1725   -0.6578    0.0000 C   0  0  0  0  0  0  0  0  0  0  0  0
    3.5146    0.0121    0.0000 C   0  0  0  0  0  0  0  0  0  0  0  0
    3.6055    1.5094    0.0000 O   0  0  0  0  0  0  0  0  0  0  0  0
    4.7658   -0.8152    0.0000 O   0  0  0  0  0  0  0  0  0  0  0  0
  1  2  1  0
  1  3  1  0
  3  4  1  0
  4  5  1  0
  5  6  1  0
  6  7  1  0
  7  8  1  0
  8  9  2  0
  8 10  1  0
M  END
>  <rName>  (1810) 
NMe-6-Ahx

>  <PQ_SYMBOL>  (1810) 
NMe-6-Ahx

>  <FULL_NAME>  (1810) 
6-(methylamino)hexanoic acid

>  <IUPAC_CONDENSED>  (1810) 
Me-6-Ahx

>  <IUPAC>  (1810) 
6-(methylamino)hexanoic acid

>  <TYPE>  (1810) 
Backbone

>  <CLASS>  (1810) 
epsilon

>  <ANALOG>  (1810) 
Gly

>  <MOL_WT>  (1810) 
145.202

>  <LOGP>  (1810) 
0.8507999999999998

>  <TPSA>  (1810) 
49.33

>  <POPULARITY>  (1810) 
19

>  <PROTECTED>  (1810) 
TRUE

>  <SMILES>  (1810) 
N(C)CCCCCC(=O)O

>  <INCHIKEY>  (1810) 
XRUDAAKPTLVBMB-UHFFFAOYSA-N

$$$$
NMe-Phe_2F
     RDKit          2D

 14 14  0  0  0  0  0  0  0  0999 V2000
   -1.4630    1.4634    0.0000 N   0  0  0  0  0  0  0  0  0  0  0  0
   -2.6966    2.3168    0.0000 C   0  0  0  0  0  0  0  0  0  0  0  0
   -1.5853   -0.0316    0.0000 C   0  0  0  0  0  0  0  0  0  0  0  0
   -0.3517   -0.8850    0.0000 C   0  0  0  0  0  0  0  0  0  0  0  0
    1.0042   -0.2434    0.0000 C   0  0  0  0  0  0  0  0  0  0  0  0
    1.1264    1.2516    0.0000 C   0  0  0  0  0  0  0  0  0  0  0  0
    2.4823    1.8933    0.0000 C   0  0  0  0  0  0  0  0  0  0  0  0
    3.7159    1.0399    0.0000 C   0  0  0  0  0  0  0  0  0  0  0  0
    3.5936   -0.4551    0.0000 C   0  0  0  0  0  0  0  0  0  0  0  0
    2.2378   -1.0967    0.0000 C   0  0  0  0  0  0  0  0  0  0  0  0
    2.1155   -2.5917    0.0000 F   0  0  0  0  0  0  0  0  0  0  0  0
   -2.9411   -0.6733    0.0000 C   0  0  0  0  0  0  0  0  0  0  0  0
   -3.0633   -2.1683    0.0000 O   0  0  0  0  0  0  0  0  0  0  0  0
   -4.1747    0.1801    0.0000 O   0  0  0  0  0  0  0  0  0  0  0  0
  1  2  1  0
  1  3  1  0
  3  4  1  1
  4  5  1  0
  5  6  2  0
  6  7  1  0
  7  8  2  0
  8  9  1  0
  9 10  2  0
 10 11  1  0
  3 12  1  0
 12 13  2  0
 12 14  1  0
 10  5  1  0
M  END
>  <rName>  (1811) 
NMe-Phe_2F

>  <PQ_SYMBOL>  (1811) 
NMe-Phe_2F

>  <FULL_NAME>  (1811) 
(S)-3-(2-fluorophenyl)-2-(methylamino)propanoic acid

>  <IUPAC_CONDENSED>  (1811) 
Me-Phe(2-F)

>  <IUPAC>  (1811) 
(2S)-3-(2-fluorophenyl)-2-(methylamino)propanoic acid

>  <TYPE>  (1811) 
Backbone

>  <CLASS>  (1811) 
alpha

>  <ANALOG>  (1811) 
Phe

>  <MOL_WT>  (1811) 
197.20899999999995

>  <LOGP>  (1811) 
1.0407999999999997

>  <TPSA>  (1811) 
49.33

>  <POPULARITY>  (1811) 
6.7

>  <PROTECTED>  (1811) 
TRUE

>  <SMILES>  (1811) 
N(C)[C@@H](Cc1(ccccc1F))C(=O)O

>  <INCHIKEY>  (1811) 
CCDCDPCWLAPDAQ-VIFPVBQESA-N

$$$$
4-amino-cHex-1-CO2H
     RDKit          2D

 10 10  0  0  0  0  0  0  0  0999 V2000
    3.7500    0.0000    0.0000 N   0  0  0  0  0  0  0  0  0  0  0  0
    2.2500   -0.0000    0.0000 C   0  0  0  0  0  0  0  0  0  0  0  0
    1.5000   -1.2990    0.0000 C   0  0  0  0  0  0  0  0  0  0  0  0
   -0.0000   -1.2990    0.0000 C   0  0  0  0  0  0  0  0  0  0  0  0
   -0.7500    0.0000    0.0000 C   0  0  0  0  0  0  0  0  0  0  0  0
    0.0000    1.2990    0.0000 C   0  0  0  0  0  0  0  0  0  0  0  0
    1.5000    1.2990    0.0000 C   0  0  0  0  0  0  0  0  0  0  0  0
   -2.2500    0.0000    0.0000 C   0  0  0  0  0  0  0  0  0  0  0  0
   -3.0000   -1.2990    0.0000 O   0  0  0  0  0  0  0  0  0  0  0  0
   -3.0000    1.2990    0.0000 O   0  0  0  0  0  0  0  0  0  0  0  0
  1  2  1  0
  2  3  1  0
  3  4  1  0
  4  5  1  0
  5  6  1  0
  6  7  1  0
  5  8  1  0
  8  9  2  0
  8 10  1  0
  7  2  1  0
M  END
>  <rName>  (1812) 
4-amino-cHex-1-CO2H

>  <PQ_SYMBOL>  (1812) 
4-amino-cHex-1-CO2H

>  <FULL_NAME>  (1812) 
4-aminocyclohexane-1-carboxylic acid

>  <IUPAC_CONDENSED>  (1812) 
4-amino-cHex-1-CO2H

>  <IUPAC>  (1812) 
4-aminocyclohexanecarboxylic acid

>  <TYPE>  (1812) 
Backbone

>  <CLASS>  (1812) 
delta

>  <ANALOG>  (1812) 
Ala

>  <MOL_WT>  (1812) 
143.186

>  <LOGP>  (1812) 
0.5884999999999998

>  <TPSA>  (1812) 
63.32000000000001

>  <POPULARITY>  (1812) 
15.6

>  <PROTECTED>  (1812) 
TRUE

>  <SMILES>  (1812) 
NC1CCC(CC1)C(=O)O

>  <INCHIKEY>  (1812) 
DRNGLYHKYPNTEA-UHFFFAOYSA-N

$$$$
Nle_4Et
     RDKit          2D

 11 10  0  0  0  0  0  0  0  0999 V2000
   -0.9775   -1.6170    0.0000 N   0  0  0  0  0  0  0  0  0  0  0  0
   -0.9473   -0.1173    0.0000 C   0  0  0  0  0  0  0  0  0  0  0  0
    0.3666    0.6064    0.0000 C   0  0  0  0  0  0  0  0  0  0  0  0
    1.6502   -0.1696    0.0000 C   0  0  0  0  0  0  0  0  0  0  0  0
    2.9641    0.5541    0.0000 C   0  0  0  0  0  0  0  0  0  0  0  0
    2.9943    2.0538    0.0000 C   0  0  0  0  0  0  0  0  0  0  0  0
    1.6200   -1.6693    0.0000 C   0  0  0  0  0  0  0  0  0  0  0  0
    0.3062   -2.3930    0.0000 C   0  0  0  0  0  0  0  0  0  0  0  0
   -2.2310    0.6587    0.0000 C   0  0  0  0  0  0  0  0  0  0  0  0
   -2.2008    2.1584    0.0000 O   0  0  0  0  0  0  0  0  0  0  0  0
   -3.5449   -0.0650    0.0000 O   0  0  0  0  0  0  0  0  0  0  0  0
  2  1  1  6
  2  3  1  0
  3  4  1  0
  4  5  1  0
  5  6  1  0
  4  7  1  0
  7  8  1  0
  2  9  1  0
  9 10  2  0
  9 11  1  0
M  END
>  <rName>  (1813) 
Nle_4Et

>  <PQ_SYMBOL>  (1813) 
Nle_4Et

>  <FULL_NAME>  (1813) 
(S)-2-amino-4-ethylhexanoic acid

>  <IUPAC_CONDENSED>  (1813) 
Nle(4-Et)

>  <IUPAC>  (1813) 
(2S)-2-amino-4-ethylhexanoic acid

>  <TYPE>  (1813) 
Backbone

>  <CLASS>  (1813) 
alpha

>  <ANALOG>  (1813) 
Leu

>  <MOL_WT>  (1813) 
159.229

>  <LOGP>  (1813) 
1.2245999999999997

>  <TPSA>  (1813) 
63.32000000000001

>  <POPULARITY>  (1813) 
13

>  <PROTECTED>  (1813) 
TRUE

>  <SMILES>  (1813) 
N[C@@H](CC(CC)CC)C(=O)O

>  <INCHIKEY>  (1813) 
FNTZSUXNNTXOEI-ZETCQYMHSA-N

$$$$
NMe-Ac3c
     RDKit          2D

  8  8  0  0  0  0  0  0  0  0999 V2000
   -1.0647   -0.9225    0.0000 N   0  0  0  0  0  0  0  0  0  0  0  0
   -2.5574   -0.7748    0.0000 C   0  0  0  0  0  0  0  0  0  0  0  0
   -0.1904    0.2963    0.0000 C   0  0  0  0  0  0  0  0  0  0  0  0
    0.2143    1.7407    0.0000 C   0  0  0  0  0  0  0  0  0  0  0  0
   -1.2389    1.3690    0.0000 C   0  0  0  0  0  0  0  0  0  0  0  0
    1.1617   -0.3531    0.0000 C   0  0  0  0  0  0  0  0  0  0  0  0
    2.4002    0.4932    0.0000 O   0  0  0  0  0  0  0  0  0  0  0  0
    1.2754   -1.8488    0.0000 O   0  0  0  0  0  0  0  0  0  0  0  0
  1  2  1  0
  1  3  1  0
  3  4  1  0
  4  5  1  0
  3  6  1  0
  6  7  2  0
  6  8  1  0
  5  3  1  0
M  END
>  <rName>  (1814) 
NMe-Ac3c

>  <PQ_SYMBOL>  (1814) 
NMe-Ac3c

>  <FULL_NAME>  (1814) 
1-(methylamino)cyclopropane-1-carboxylic acid

>  <IUPAC_CONDENSED>  (1814) 
Me-Ac3c

>  <IUPAC>  (1814) 
1-(methylamino)cyclopropanecarboxylic acid

>  <TYPE>  (1814) 
Backbone

>  <CLASS>  (1814) 
alpha

>  <ANALOG>  (1814) 
X

>  <MOL_WT>  (1814) 
115.13199999999999

>  <LOGP>  (1814) 
-0.17700000000000032

>  <TPSA>  (1814) 
49.33

>  <POPULARITY>  (1814) 
14.3

>  <PROTECTED>  (1814) 
TRUE

>  <SMILES>  (1814) 
N(C)C1(CC1)C(=O)O

>  <INCHIKEY>  (1814) 
ZCLBLSZZIRMCLZ-UHFFFAOYSA-N

$$$$
NMe-Ac4c
     RDKit          2D

  9  9  0  0  0  0  0  0  0  0999 V2000
   -0.5215   -1.3307    0.0000 N   0  0  0  0  0  0  0  0  0  0  0  0
   -1.9619   -1.7491    0.0000 C   0  0  0  0  0  0  0  0  0  0  0  0
   -0.1637    0.1260    0.0000 C   0  0  0  0  0  0  0  0  0  0  0  0
   -1.6204    0.4838    0.0000 C   0  0  0  0  0  0  0  0  0  0  0  0
   -1.2625    1.9405    0.0000 C   0  0  0  0  0  0  0  0  0  0  0  0
    0.1942    1.5827    0.0000 C   0  0  0  0  0  0  0  0  0  0  0  0
    1.2930   -0.2318    0.0000 C   0  0  0  0  0  0  0  0  0  0  0  0
    2.3313    0.8508    0.0000 O   0  0  0  0  0  0  0  0  0  0  0  0
    1.7115   -1.6723    0.0000 O   0  0  0  0  0  0  0  0  0  0  0  0
  1  2  1  0
  1  3  1  0
  3  4  1  0
  4  5  1  0
  5  6  1  0
  3  7  1  0
  7  8  2  0
  7  9  1  0
  6  3  1  0
M  END
>  <rName>  (1815) 
NMe-Ac4c

>  <PQ_SYMBOL>  (1815) 
NMe-Ac4c

>  <FULL_NAME>  (1815) 
1-(methylamino)cyclobutane-1-carboxylic acid

>  <IUPAC_CONDENSED>  (1815) 
Me-Ac4c

>  <IUPAC>  (1815) 
1-(methylamino)cyclobutanecarboxylic acid

>  <TYPE>  (1815) 
Backbone

>  <CLASS>  (1815) 
alpha

>  <ANALOG>  (1815) 
X

>  <MOL_WT>  (1815) 
129.15900000000002

>  <LOGP>  (1815) 
0.2131

>  <TPSA>  (1815) 
49.33

>  <POPULARITY>  (1815) 
9.6

>  <PROTECTED>  (1815) 
TRUE

>  <SMILES>  (1815) 
N(C)C1(CCC1)C(=O)O

>  <INCHIKEY>  (1815) 
ZGIIYBQFEOZGIX-UHFFFAOYSA-N

$$$$
NMe-Ac6c
     RDKit          2D

 11 11  0  0  0  0  0  0  0  0999 V2000
    1.2281   -1.1676    0.0000 N   0  0  0  0  0  0  0  0  0  0  0  0
    0.7853   -2.6007    0.0000 C   0  0  0  0  0  0  0  0  0  0  0  0
    0.2083   -0.0675    0.0000 C   0  0  0  0  0  0  0  0  0  0  0  0
   -0.6979   -1.2628    0.0000 C   0  0  0  0  0  0  0  0  0  0  0  0
   -2.1862   -1.0757    0.0000 C   0  0  0  0  0  0  0  0  0  0  0  0
   -2.7683    0.3068    0.0000 C   0  0  0  0  0  0  0  0  0  0  0  0
   -1.8620    1.5021    0.0000 C   0  0  0  0  0  0  0  0  0  0  0  0
   -0.3737    1.3149    0.0000 C   0  0  0  0  0  0  0  0  0  0  0  0
    1.4687    0.7457    0.0000 C   0  0  0  0  0  0  0  0  0  0  0  0
    1.3946    2.2439    0.0000 O   0  0  0  0  0  0  0  0  0  0  0  0
    2.8032    0.0608    0.0000 O   0  0  0  0  0  0  0  0  0  0  0  0
  1  2  1  0
  1  3  1  0
  3  4  1  0
  4  5  1  0
  5  6  1  0
  6  7  1  0
  7  8  1  0
  3  9  1  0
  9 10  2  0
  9 11  1  0
  8  3  1  0
M  END
>  <rName>  (1816) 
NMe-Ac6c

>  <PQ_SYMBOL>  (1816) 
NMe-Ac6c

>  <FULL_NAME>  (1816) 
1-(methylamino)cyclohexane-1-carboxylic acid

>  <IUPAC_CONDENSED>  (1816) 
Me-Ac6c

>  <IUPAC>  (1816) 
1-(methylamino)cyclohexanecarboxylic acid

>  <TYPE>  (1816) 
Backbone

>  <CLASS>  (1816) 
alpha

>  <ANALOG>  (1816) 
X

>  <MOL_WT>  (1816) 
157.21300000000002

>  <LOGP>  (1816) 
0.9932999999999998

>  <TPSA>  (1816) 
49.33

>  <POPULARITY>  (1816) 
11.9

>  <PROTECTED>  (1816) 
TRUE

>  <SMILES>  (1816) 
N(C)C1(CCCCC1)C(=O)O

>  <INCHIKEY>  (1816) 
HVYIHHARGXZADR-UHFFFAOYSA-N

$$$$
NBn2NO2-G
     RDKit          2D

 15 15  0  0  0  0  0  0  0  0999 V2000
   -1.7503    0.1627    0.0000 N   0  0  0  0  0  0  0  0  0  0  0  0
   -0.3962   -0.4827    0.0000 C   0  0  0  0  0  0  0  0  0  0  0  0
    0.8397    0.3672    0.0000 C   0  0  0  0  0  0  0  0  0  0  0  0
    0.7217    1.8626    0.0000 C   0  0  0  0  0  0  0  0  0  0  0  0
    1.9576    2.7125    0.0000 C   0  0  0  0  0  0  0  0  0  0  0  0
    3.3117    2.0671    0.0000 C   0  0  0  0  0  0  0  0  0  0  0  0
    3.4297    0.5717    0.0000 C   0  0  0  0  0  0  0  0  0  0  0  0
    2.1938   -0.2782    0.0000 C   0  0  0  0  0  0  0  0  0  0  0  0
    2.3118   -1.7735    0.0000 N   0  0  0  0  0  0  0  0  0  0  0  0
    1.0759   -2.6235    0.0000 O   0  0  0  0  0  0  0  0  0  0  0  0
    3.6659   -2.4190    0.0000 O   0  0  0  0  0  0  0  0  0  0  0  0
   -2.9863   -0.6872    0.0000 C   0  0  0  0  0  0  0  0  0  0  0  0
   -4.3403   -0.0418    0.0000 C   0  0  0  0  0  0  0  0  0  0  0  0
   -4.4584    1.4536    0.0000 O   0  0  0  0  0  0  0  0  0  0  0  0
   -5.5763   -0.8917    0.0000 O   0  0  0  0  0  0  0  0  0  0  0  0
  1  2  1  0
  2  3  1  0
  3  4  2  0
  4  5  1  0
  5  6  2  0
  6  7  1  0
  7  8  2  0
  8  9  1  0
  9 10  2  0
  9 11  1  0
  1 12  1  0
 12 13  1  0
 13 14  2  0
 13 15  1  0
  8  3  1  0
M  CHG  2   9   1  11  -1
M  END
>  <rName>  (1817) 
NBn2NO2-G

>  <PQ_SYMBOL>  (1817) 
NBn2NO2-G

>  <FULL_NAME>  (1817) 
(2-nitrobenzyl)glycine

>  <IUPAC_CONDENSED>  (1817) 
Bn(2-NO2)-Gly

>  <IUPAC>  (1817) 
2-(((2-nitrophenyl)methyl)amino)acetic acid

>  <TYPE>  (1817) 
Backbone

>  <CLASS>  (1817) 
alpha

>  <ANALOG>  (1817) 
Gly

>  <MOL_WT>  (1817) 
210.18899999999996

>  <LOGP>  (1817) 
0.7689999999999999

>  <TPSA>  (1817) 
92.47000000000001

>  <POPULARITY>  (1817) 
6.8

>  <PROTECTED>  (1817) 
TRUE

>  <SMILES>  (1817) 
N(Cc1(ccccc1[N+](=O)[O-]))CC(=O)O

>  <INCHIKEY>  (1817) 
PRJCIUDMDQNJCJ-UHFFFAOYSA-N

$$$$
NBn3Cl-G
     RDKit          2D

 13 13  0  0  0  0  0  0  0  0999 V2000
   -1.6091   -0.1426    0.0000 N   0  0  0  0  0  0  0  0  0  0  0  0
   -0.3532   -0.9628    0.0000 C   0  0  0  0  0  0  0  0  0  0  0  0
    0.9851   -0.2853    0.0000 C   0  0  0  0  0  0  0  0  0  0  0  0
    1.0675    1.2124    0.0000 C   0  0  0  0  0  0  0  0  0  0  0  0
    2.4057    1.8899    0.0000 C   0  0  0  0  0  0  0  0  0  0  0  0
    3.6616    1.0697    0.0000 C   0  0  0  0  0  0  0  0  0  0  0  0
    3.5792   -0.4280    0.0000 C   0  0  0  0  0  0  0  0  0  0  0  0
    4.8351   -1.2482    0.0000 Cl  0  0  0  0  0  0  0  0  0  0  0  0
    2.2410   -1.1055    0.0000 C   0  0  0  0  0  0  0  0  0  0  0  0
   -2.9473   -0.8201    0.0000 C   0  0  0  0  0  0  0  0  0  0  0  0
   -4.2032    0.0001    0.0000 C   0  0  0  0  0  0  0  0  0  0  0  0
   -4.1208    1.4978    0.0000 O   0  0  0  0  0  0  0  0  0  0  0  0
   -5.5415   -0.6774    0.0000 O   0  0  0  0  0  0  0  0  0  0  0  0
  1  2  1  0
  2  3  1  0
  3  4  2  0
  4  5  1  0
  5  6  2  0
  6  7  1  0
  7  8  1  0
  7  9  2  0
  1 10  1  0
 10 11  1  0
 11 12  2  0
 11 13  1  0
  9  3  1  0
M  END
>  <rName>  (1818) 
NBn3Cl-G

>  <PQ_SYMBOL>  (1818) 
NBn3Cl-G

>  <FULL_NAME>  (1818) 
(3-chlorobenzyl)glycine

>  <IUPAC_CONDENSED>  (1818) 
Bn(3-Cl)-Gly

>  <IUPAC>  (1818) 
2-(((3-chlorophenyl)methyl)amino)acetic acid

>  <TYPE>  (1818) 
Backbone

>  <CLASS>  (1818) 
alpha

>  <ANALOG>  (1818) 
Gly

>  <MOL_WT>  (1818) 
199.63699999999997

>  <LOGP>  (1818) 
1.5142

>  <TPSA>  (1818) 
49.33

>  <POPULARITY>  (1818) 
12.1

>  <PROTECTED>  (1818) 
TRUE

>  <SMILES>  (1818) 
N(Cc1(cccc(Cl)c1))CC(=O)O

>  <INCHIKEY>  (1818) 
AVQLNLPZBVURGB-UHFFFAOYSA-N

$$$$
pyrrolidin-3-ylAc
     RDKit          2D

  9  9  0  0  0  0  0  0  0  0999 V2000
   -2.3794   -1.0606    0.0000 N   0  0  0  0  0  0  0  0  0  0  0  0
   -0.8806   -1.0024    0.0000 C   0  0  0  0  0  0  0  0  0  0  0  0
   -0.4728    0.4411    0.0000 C   0  0  0  0  0  0  0  0  0  0  0  0
   -1.7196    1.2750    0.0000 C   0  0  0  0  0  0  0  0  0  0  0  0
   -2.8980    0.3469    0.0000 C   0  0  0  0  0  0  0  0  0  0  0  0
    0.9347    0.9597    0.0000 C   0  0  0  0  0  0  0  0  0  0  0  0
    2.0876   -0.0000    0.0000 C   0  0  0  0  0  0  0  0  0  0  0  0
    1.8329   -1.4782    0.0000 O   0  0  0  0  0  0  0  0  0  0  0  0
    3.4951    0.5186    0.0000 O   0  0  0  0  0  0  0  0  0  0  0  0
  1  2  1  0
  2  3  1  0
  3  4  1  0
  4  5  1  0
  3  6  1  0
  6  7  1  0
  7  8  2  0
  7  9  1  0
  5  1  1  0
M  END
>  <rName>  (1819) 
pyrrolidin-3-ylAc

>  <PQ_SYMBOL>  (1819) 
pyrrolidin-3-ylAc

>  <FULL_NAME>  (1819) 
2-(pyrrolidin-3-yl)acetic acid

>  <IUPAC_CONDENSED>  (1819) 
pyrrolidin-3-ylAc

>  <IUPAC>  (1819) 
2-(pyrrolidin-3-yl)acetic acid

>  <TYPE>  (1819) 
Backbone

>  <CLASS>  (1819) 
gamma

>  <ANALOG>  (1819) 
Pro

>  <MOL_WT>  (1819) 
129.15900000000002

>  <LOGP>  (1819) 
0.07059999999999994

>  <TPSA>  (1819) 
49.33

>  <POPULARITY>  (1819) 
12.8

>  <PROTECTED>  (1819) 
TRUE

>  <SMILES>  (1819) 
N1CC(CC1)CC(=O)O

>  <INCHIKEY>  (1819) 
OUENRUZPZZFMCA-UHFFFAOYSA-N

$$$$
Ala_13benzodioxol5yl
     RDKit          2D

 15 16  0  0  0  0  0  0  0  0999 V2000
    2.4169   -1.6715    0.0000 N   0  0  0  0  0  0  0  0  0  0  0  0
    2.6919   -0.1969    0.0000 C   0  0  0  0  0  0  0  0  0  0  0  0
    1.5524    0.7786    0.0000 C   0  0  0  0  0  0  0  0  0  0  0  0
    0.1379    0.2795    0.0000 C   0  0  0  0  0  0  0  0  0  0  0  0
   -0.1372   -1.1951    0.0000 C   0  0  0  0  0  0  0  0  0  0  0  0
   -1.5517   -1.6942    0.0000 C   0  0  0  0  0  0  0  0  0  0  0  0
   -2.6912   -0.7188    0.0000 C   0  0  0  0  0  0  0  0  0  0  0  0
   -4.1786   -0.9129    0.0000 O   0  0  0  0  0  0  0  0  0  0  0  0
   -4.8228    0.4417    0.0000 C   0  0  0  0  0  0  0  0  0  0  0  0
   -3.7336    1.4730    0.0000 O   0  0  0  0  0  0  0  0  0  0  0  0
   -2.4162    0.7558    0.0000 C   0  0  0  0  0  0  0  0  0  0  0  0
   -1.0016    1.2549    0.0000 C   0  0  0  0  0  0  0  0  0  0  0  0
    4.1064    0.3022    0.0000 C   0  0  0  0  0  0  0  0  0  0  0  0
    4.3814    1.7768    0.0000 O   0  0  0  0  0  0  0  0  0  0  0  0
    5.2459   -0.6732    0.0000 O   0  0  0  0  0  0  0  0  0  0  0  0
  2  1  1  1
  2  3  1  0
  3  4  1  0
  4  5  1  0
  5  6  2  0
  6  7  1  0
  7  8  1  0
  8  9  1  0
  9 10  1  0
 10 11  1  0
 11 12  1  0
  2 13  1  0
 13 14  2  0
 13 15  1  0
 11  7  2  0
 12  4  2  0
M  END
>  <rName>  (1820) 
Ala_13benzodioxol5yl

>  <PQ_SYMBOL>  (1820) 
Ala_13benzodioxol5yl

>  <FULL_NAME>  (1820) 
(S)-2-amino-3-(benzo[d][1,3]dioxol-5-yl)propanoic acid

>  <IUPAC_CONDENSED>  (1820) 
Ala(1,3-benzodioxol-5-yl)

>  <IUPAC>  (1820) 
(2S)-2-amino-3-(7,9-dioxabicyclo[4.3.0]nona-1,3,5-trien-3-yl)propanoic acid

>  <TYPE>  (1820) 
Backbone

>  <CLASS>  (1820) 
alpha

>  <ANALOG>  (1820) 
Tyr

>  <MOL_WT>  (1820) 
209.20099999999996

>  <LOGP>  (1820) 
0.36969999999999986

>  <TPSA>  (1820) 
81.78

>  <POPULARITY>  (1820) 
5.3

>  <PROTECTED>  (1820) 
TRUE

>  <SMILES>  (1820) 
N[C@@H](Cc2(ccc1(OCOc1c2)))C(=O)O

>  <INCHIKEY>  (1820) 
XHBLRJRZRFZSGW-ZETCQYMHSA-N

$$$$
D-Ala_I
     RDKit          2D

  7  6  0  0  0  0  0  0  0  0999 V2000
    0.5797   -1.7367    0.0000 N   0  0  0  0  0  0  0  0  0  0  0  0
    0.2514   -0.2730    0.0000 C   0  0  0  0  0  0  0  0  0  0  0  0
    1.3548    0.7431    0.0000 C   0  0  0  0  0  0  0  0  0  0  0  0
    2.7865    0.2956    0.0000 I   0  0  0  0  0  0  0  0  0  0  0  0
   -1.1803    0.1745    0.0000 C   0  0  0  0  0  0  0  0  0  0  0  0
   -1.5086    1.6381    0.0000 O   0  0  0  0  0  0  0  0  0  0  0  0
   -2.2837   -0.8417    0.0000 O   0  0  0  0  0  0  0  0  0  0  0  0
  2  1  1  6
  2  3  1  0
  3  4  1  0
  2  5  1  0
  5  6  2  0
  5  7  1  0
M  END
>  <rName>  (1821) 
D-Ala_I

>  <PQ_SYMBOL>  (1821) 
D-Ala_I

>  <FULL_NAME>  (1821) 
(R)-2-amino-3-iodopropanoic acid

>  <IUPAC_CONDENSED>  (1821) 
D-Ala(I)

>  <IUPAC>  (1821) 
(2R)-2-amino-3-iodopropanoic acid

>  <TYPE>  (1821) 
Backbone

>  <CLASS>  (1821) 
alpha

>  <ANALOG>  (1821) 
X

>  <MOL_WT>  (1821) 
214.98999999999998

>  <LOGP>  (1821) 
-0.1666999999999999

>  <TPSA>  (1821) 
63.32000000000001

>  <POPULARITY>  (1821) 
4.7

>  <PROTECTED>  (1821) 
TRUE

>  <SMILES>  (1821) 
N[C@@H](CI)C(=O)O

>  <INCHIKEY>  (1821) 
DIZAJUVUZKMLQL-REOHCLBHSA-N

$$$$
D-Phe_2CONH2
     RDKit          2D

 15 15  0  0  0  0  0  0  0  0999 V2000
   -2.0511    1.9295    0.0000 N   0  0  0  0  0  0  0  0  0  0  0  0
   -2.0725    0.4296    0.0000 C   0  0  0  0  0  0  0  0  0  0  0  0
   -0.7843   -0.3388    0.0000 C   0  0  0  0  0  0  0  0  0  0  0  0
    0.5253    0.3925    0.0000 C   0  0  0  0  0  0  0  0  0  0  0  0
    0.5467    1.8924    0.0000 C   0  0  0  0  0  0  0  0  0  0  0  0
    1.8563    2.6238    0.0000 C   0  0  0  0  0  0  0  0  0  0  0  0
    3.1445    1.8553    0.0000 C   0  0  0  0  0  0  0  0  0  0  0  0
    3.1231    0.3555    0.0000 C   0  0  0  0  0  0  0  0  0  0  0  0
    1.8135   -0.3759    0.0000 C   0  0  0  0  0  0  0  0  0  0  0  0
    1.7921   -1.8758    0.0000 C   0  0  0  0  0  0  0  0  0  0  0  0
    0.4825   -2.6072    0.0000 O   0  0  0  0  0  0  0  0  0  0  0  0
    3.0803   -2.6442    0.0000 N   0  0  0  0  0  0  0  0  0  0  0  0
   -3.3821   -0.3018    0.0000 C   0  0  0  0  0  0  0  0  0  0  0  0
   -3.4036   -1.8016    0.0000 O   0  0  0  0  0  0  0  0  0  0  0  0
   -4.6704    0.4667    0.0000 O   0  0  0  0  0  0  0  0  0  0  0  0
  2  1  1  6
  2  3  1  0
  3  4  1  0
  4  5  2  0
  5  6  1  0
  6  7  2  0
  7  8  1  0
  8  9  2  0
  9 10  1  0
 10 11  2  0
 10 12  1  0
  2 13  1  0
 13 14  2  0
 13 15  1  0
  9  4  1  0
M  END
>  <rName>  (1822) 
D-Phe_2CONH2

>  <PQ_SYMBOL>  (1822) 
D-Phe_2CONH2

>  <FULL_NAME>  (1822) 
(R)-2-amino-3-(2-carbamoylphenyl)propanoic acid

>  <IUPAC_CONDENSED>  (1822) 
D-Phe(2-CONH2)

>  <IUPAC>  (1822) 
(2R)-2-amino-3-(2-carbamoylphenyl)propanoic acid

>  <TYPE>  (1822) 
Backbone

>  <CLASS>  (1822) 
alpha

>  <ANALOG>  (1822) 
Phe

>  <MOL_WT>  (1822) 
208.21699999999996

>  <LOGP>  (1822) 
-0.2601000000000003

>  <TPSA>  (1822) 
106.41000000000001

>  <POPULARITY>  (1822) 
3.7

>  <PROTECTED>  (1822) 
TRUE

>  <SMILES>  (1822) 
N[C@H](Cc1(ccccc1C(=O)N))C(=O)O

>  <INCHIKEY>  (1822) 
QDQWGGPXZQIUPR-MRVPVSSYSA-N

$$$$
D-Phe_2I
     RDKit          2D

 13 13  0  0  0  0  0  0  0  0999 V2000
   -1.4864    1.8099    0.0000 N   0  0  0  0  0  0  0  0  0  0  0  0
   -1.7669    0.3364    0.0000 C   0  0  0  0  0  0  0  0  0  0  0  0
   -0.6311   -0.6433    0.0000 C   0  0  0  0  0  0  0  0  0  0  0  0
    0.7853   -0.1495    0.0000 C   0  0  0  0  0  0  0  0  0  0  0  0
    1.0658    1.3241    0.0000 C   0  0  0  0  0  0  0  0  0  0  0  0
    2.4822    1.8179    0.0000 C   0  0  0  0  0  0  0  0  0  0  0  0
    3.6181    0.8382    0.0000 C   0  0  0  0  0  0  0  0  0  0  0  0
    3.3376   -0.6353    0.0000 C   0  0  0  0  0  0  0  0  0  0  0  0
    1.9212   -1.1292    0.0000 C   0  0  0  0  0  0  0  0  0  0  0  0
    1.6407   -2.6027    0.0000 I   0  0  0  0  0  0  0  0  0  0  0  0
   -3.1833   -0.1575    0.0000 C   0  0  0  0  0  0  0  0  0  0  0  0
   -3.4638   -1.6310    0.0000 O   0  0  0  0  0  0  0  0  0  0  0  0
   -4.3192    0.8222    0.0000 O   0  0  0  0  0  0  0  0  0  0  0  0
  2  1  1  6
  2  3  1  0
  3  4  1  0
  4  5  2  0
  5  6  1  0
  6  7  2  0
  7  8  1  0
  8  9  2  0
  9 10  1  0
  2 11  1  0
 11 12  2  0
 11 13  1  0
  9  4  1  0
M  END
>  <rName>  (1823) 
D-Phe_2I

>  <PQ_SYMBOL>  (1823) 
D-Phe_2I

>  <FULL_NAME>  (1823) 
(R)-2-amino-3-(2-iodophenyl)propanoic acid

>  <IUPAC_CONDENSED>  (1823) 
D-Phe(2-I)

>  <IUPAC>  (1823) 
(2R)-2-amino-3-(2-iodophenyl)propanoic acid

>  <TYPE>  (1823) 
Backbone

>  <CLASS>  (1823) 
alpha

>  <ANALOG>  (1823) 
Phe

>  <MOL_WT>  (1823) 
291.088

>  <LOGP>  (1823) 
1.2456000000000003

>  <TPSA>  (1823) 
63.32000000000001

>  <POPULARITY>  (1823) 
3.3

>  <PROTECTED>  (1823) 
TRUE

>  <SMILES>  (1823) 
N[C@H](Cc1(ccccc1I))C(=O)O

>  <INCHIKEY>  (1823) 
BKXVGLPBXYBDDM-MRVPVSSYSA-N

$$$$
Tyr_2Me_5F
     RDKit          2D

 15 15  0  0  0  0  0  0  0  0999 V2000
   -2.0609    1.6226    0.0000 N   0  0  0  0  0  0  0  0  0  0  0  0
   -2.4694    0.1793    0.0000 C   0  0  0  0  0  0  0  0  0  0  0  0
   -1.4237   -0.8961    0.0000 C   0  0  0  0  0  0  0  0  0  0  0  0
    0.0305   -0.5283    0.0000 C   0  0  0  0  0  0  0  0  0  0  0  0
    0.4390    0.9150    0.0000 C   0  0  0  0  0  0  0  0  0  0  0  0
    1.8932    1.2829    0.0000 C   0  0  0  0  0  0  0  0  0  0  0  0
    2.3017    2.7262    0.0000 C   0  0  0  0  0  0  0  0  0  0  0  0
    2.9389    0.2075    0.0000 C   0  0  0  0  0  0  0  0  0  0  0  0
    4.3931    0.5753    0.0000 O   0  0  0  0  0  0  0  0  0  0  0  0
    2.5304   -1.2358    0.0000 C   0  0  0  0  0  0  0  0  0  0  0  0
    3.5760   -2.3113    0.0000 F   0  0  0  0  0  0  0  0  0  0  0  0
    1.0762   -1.6037    0.0000 C   0  0  0  0  0  0  0  0  0  0  0  0
   -3.9236   -0.1886    0.0000 C   0  0  0  0  0  0  0  0  0  0  0  0
   -4.3321   -1.6319    0.0000 O   0  0  0  0  0  0  0  0  0  0  0  0
   -4.9693    0.8868    0.0000 O   0  0  0  0  0  0  0  0  0  0  0  0
  2  1  1  1
  2  3  1  0
  3  4  1  0
  4  5  2  0
  5  6  1  0
  6  7  1  0
  6  8  2  0
  8  9  1  0
  8 10  1  0
 10 11  1  0
 10 12  2  0
  2 13  1  0
 13 14  2  0
 13 15  1  0
 12  4  1  0
M  END
>  <rName>  (1824) 
Tyr_2Me_5F

>  <PQ_SYMBOL>  (1824) 
Tyr_2Me_5F

>  <FULL_NAME>  (1824) 
(S)-2-amino-3-(3-fluoro-4-hydroxy-5-methylphenyl)propanoic acid

>  <IUPAC_CONDENSED>  (1824) 
Tyr(2-Me,5-F)

>  <IUPAC>  (1824) 
(2S)-2-amino-3-(3-fluoro-4-hydroxy-5-methylphenyl)propanoic acid

>  <TYPE>  (1824) 
Backbone

>  <CLASS>  (1824) 
alpha

>  <ANALOG>  (1824) 
Tyr

>  <MOL_WT>  (1824) 
213.20799999999997

>  <LOGP>  (1824) 
0.79412

>  <TPSA>  (1824) 
83.55

>  <POPULARITY>  (1824) 
2.9

>  <PROTECTED>  (1824) 
TRUE

>  <SMILES>  (1824) 
N[C@@H](Cc1(cc(C)c(O)c(F)c1))C(=O)O

>  <INCHIKEY>  (1824) 
FPZCEHPJOPQTQD-QMMMGPOBSA-N

$$$$
D-Hse_Me
     RDKit          2D

  9  8  0  0  0  0  0  0  0  0999 V2000
    0.7616   -1.8791    0.0000 N   0  0  0  0  0  0  0  0  0  0  0  0
    0.8459   -0.3815    0.0000 C   0  0  0  0  0  0  0  0  0  0  0  0
   -0.4089    0.4403    0.0000 C   0  0  0  0  0  0  0  0  0  0  0  0
   -1.7480   -0.2354    0.0000 C   0  0  0  0  0  0  0  0  0  0  0  0
   -3.0029    0.5864    0.0000 O   0  0  0  0  0  0  0  0  0  0  0  0
   -4.3420   -0.0894    0.0000 C   0  0  0  0  0  0  0  0  0  0  0  0
    2.1851    0.2943    0.0000 C   0  0  0  0  0  0  0  0  0  0  0  0
    2.2694    1.7919    0.0000 O   0  0  0  0  0  0  0  0  0  0  0  0
    3.4399   -0.5275    0.0000 O   0  0  0  0  0  0  0  0  0  0  0  0
  2  1  1  6
  2  3  1  0
  3  4  1  0
  4  5  1  0
  5  6  1  0
  2  7  1  0
  7  8  2  0
  7  9  1  0
M  END
>  <rName>  (1825) 
D-Hse_Me

>  <PQ_SYMBOL>  (1825) 
D-Hse_Me

>  <FULL_NAME>  (1825) 
O-methyl-D-homoserine

>  <IUPAC_CONDENSED>  (1825) 
D-Hse(Me)

>  <IUPAC>  (1825) 
(2R)-2-amino-4-methoxybutanoic acid

>  <TYPE>  (1825) 
Backbone

>  <CLASS>  (1825) 
alpha

>  <ANALOG>  (1825) 
Ser

>  <MOL_WT>  (1825) 
133.147

>  <LOGP>  (1825) 
-0.5652000000000004

>  <TPSA>  (1825) 
72.55

>  <POPULARITY>  (1825) 
9.7

>  <PROTECTED>  (1825) 
TRUE

>  <SMILES>  (1825) 
N[C@H](CCOC)C(=O)O

>  <INCHIKEY>  (1825) 
KFHRMMHGGBCRIV-SCSAIBSYSA-N

$$$$
D-aMeDap
     RDKit          2D

  8  7  0  0  0  0  0  0  0  0999 V2000
    1.3909    1.3248    0.0000 N   0  0  0  0  0  0  0  0  0  0  0  0
    0.1650    0.4604    0.0000 C   0  0  0  0  0  0  0  0  0  0  0  0
   -0.6994    1.6864    0.0000 C   0  0  0  0  0  0  0  0  0  0  0  0
    1.0293   -0.7655    0.0000 C   0  0  0  0  0  0  0  0  0  0  0  0
    2.5232   -0.6299    0.0000 N   0  0  0  0  0  0  0  0  0  0  0  0
   -1.0610   -0.4039    0.0000 C   0  0  0  0  0  0  0  0  0  0  0  0
   -2.4225    0.2256    0.0000 O   0  0  0  0  0  0  0  0  0  0  0  0
   -0.9254   -1.8978    0.0000 O   0  0  0  0  0  0  0  0  0  0  0  0
  1  2  1  0
  2  3  1  1
  2  4  1  0
  4  5  1  0
  2  6  1  0
  6  7  2  0
  6  8  1  0
M  END
>  <rName>  (1826) 
D-aMeDap

>  <PQ_SYMBOL>  (1826) 
D-aMeDap

>  <FULL_NAME>  (1826) 
(R)-2,3-diamino-2-methylpropanoic acid

>  <IUPAC_CONDENSED>  (1826) 
D-aMeDap

>  <IUPAC>  (1826) 
(2R)-2-amino-2-(aminomethyl)propanoic acid

>  <TYPE>  (1826) 
Backbone

>  <CLASS>  (1826) 
alpha

>  <ANALOG>  (1826) 
X

>  <MOL_WT>  (1826) 
118.13599999999998

>  <LOGP>  (1826) 
-1.2528999999999997

>  <TPSA>  (1826) 
89.34

>  <POPULARITY>  (1826) 
9.9

>  <PROTECTED>  (1826) 
TRUE

>  <SMILES>  (1826) 
N[C@](C)(CN)C(=O)O

>  <INCHIKEY>  (1826) 
BJVNVLORPOBATD-SCSAIBSYSA-N

$$$$
NMe-D-Dap
     RDKit          2D

  8  7  0  0  0  0  0  0  0  0999 V2000
   -1.2990    1.3125    0.0000 N   0  0  0  0  0  0  0  0  0  0  0  0
   -2.5981    0.5625    0.0000 C   0  0  0  0  0  0  0  0  0  0  0  0
    0.0000    0.5625    0.0000 C   0  0  0  0  0  0  0  0  0  0  0  0
    1.2990    1.3125    0.0000 C   0  0  0  0  0  0  0  0  0  0  0  0
    2.5981    0.5625    0.0000 N   0  0  0  0  0  0  0  0  0  0  0  0
    0.0000   -0.9375    0.0000 C   0  0  0  0  0  0  0  0  0  0  0  0
   -1.2990   -1.6875    0.0000 O   0  0  0  0  0  0  0  0  0  0  0  0
    1.2990   -1.6875    0.0000 O   0  0  0  0  0  0  0  0  0  0  0  0
  1  2  1  0
  1  3  1  0
  3  4  1  6
  4  5  1  0
  3  6  1  0
  6  7  2  0
  6  8  1  0
M  END
>  <rName>  (1827) 
NMe-D-Dap

>  <PQ_SYMBOL>  (1827) 
NMe-D-Dap

>  <FULL_NAME>  (1827) 
(R)-3-amino-2-(methylamino)propanoic acid

>  <IUPAC_CONDENSED>  (1827) 
Me-D-Dap

>  <IUPAC>  (1827) 
(2R)-3-amino-2-(methylamino)propanoic acid

>  <TYPE>  (1827) 
Backbone

>  <CLASS>  (1827) 
alpha

>  <ANALOG>  (1827) 
X

>  <MOL_WT>  (1827) 
118.13599999999998

>  <LOGP>  (1827) 
-1.382299999999999

>  <TPSA>  (1827) 
75.35

>  <POPULARITY>  (1827) 
10.7

>  <PROTECTED>  (1827) 
TRUE

>  <SMILES>  (1827) 
N(C)[C@H](CN)C(=O)O

>  <INCHIKEY>  (1827) 
LYESEIVAYITDEH-GSVOUGTGSA-N

$$$$
Aib-Aib
     RDKit          2D

 13 12  0  0  0  0  0  0  0  0999 V2000
    0.0723   -0.7532    0.0000 N   0  0  0  0  0  0  0  0  0  0  0  0
    1.1680    0.2713    0.0000 C   0  0  0  0  0  0  0  0  0  0  0  0
    0.8287    1.7324    0.0000 O   0  0  0  0  0  0  0  0  0  0  0  0
    2.6031   -0.1654    0.0000 C   0  0  0  0  0  0  0  0  0  0  0  0
    3.0397    1.2697    0.0000 C   0  0  0  0  0  0  0  0  0  0  0  0
    2.1664   -1.6004    0.0000 C   0  0  0  0  0  0  0  0  0  0  0  0
    4.0381   -0.6020    0.0000 N   0  0  0  0  0  0  0  0  0  0  0  0
   -1.3627   -0.3165    0.0000 C   0  0  0  0  0  0  0  0  0  0  0  0
   -1.7993   -1.7515    0.0000 C   0  0  0  0  0  0  0  0  0  0  0  0
   -0.9260    1.1185    0.0000 C   0  0  0  0  0  0  0  0  0  0  0  0
   -2.7977    0.1202    0.0000 C   0  0  0  0  0  0  0  0  0  0  0  0
   -3.8934   -0.9043    0.0000 O   0  0  0  0  0  0  0  0  0  0  0  0
   -3.1371    1.5813    0.0000 O   0  0  0  0  0  0  0  0  0  0  0  0
  1  2  1  0
  2  3  2  0
  2  4  1  0
  4  5  1  0
  4  6  1  0
  4  7  1  0
  1  8  1  0
  8  9  1  0
  8 10  1  0
  8 11  1  0
 11 12  2  0
 11 13  1  0
M  END
>  <rName>  (1828) 
Aib-Aib

>  <PQ_SYMBOL>  (1828) 
Aib-Aib

>  <FULL_NAME>  (1828) 
2-(2-amino-2-methylpropanamido)-2-methylpropanoic acid

>  <IUPAC_CONDENSED>  (1828) 
Aib-Aib

>  <IUPAC>  (1828) 
2-(2-aminopropan-2-ylcarbonylamino)-2-methylpropanoic acid

>  <TYPE>  (1828) 
Backbone

>  <CLASS>  (1828) 
alpha

>  <ANALOG>  (1828) 
Ala

>  <MOL_WT>  (1828) 
188.22699999999998

>  <LOGP>  (1828) 
-0.2969

>  <TPSA>  (1828) 
92.42

>  <POPULARITY>  (1828) 
6.2

>  <PROTECTED>  (1828) 
TRUE

>  <SMILES>  (1828) 
N(C(=O)C(C)(C)N)C(C)(C)C(=O)O

>  <INCHIKEY>  (1828) 
NRMLUZKYISNRAH-UHFFFAOYSA-N

$$$$
NMe-D-Phe_4Ph
     RDKit          2D

 19 20  0  0  0  0  0  0  0  0999 V2000
   -3.1223    1.4274    0.0000 N   0  0  0  0  0  0  0  0  0  0  0  0
   -4.1006    2.5645    0.0000 C   0  0  0  0  0  0  0  0  0  0  0  0
   -3.6178    0.0116    0.0000 C   0  0  0  0  0  0  0  0  0  0  0  0
   -2.6395   -1.1254    0.0000 C   0  0  0  0  0  0  0  0  0  0  0  0
   -1.1656   -0.8467    0.0000 C   0  0  0  0  0  0  0  0  0  0  0  0
   -0.6701    0.5691    0.0000 C   0  0  0  0  0  0  0  0  0  0  0  0
    0.8038    0.8478    0.0000 C   0  0  0  0  0  0  0  0  0  0  0  0
    1.7821   -0.2892    0.0000 C   0  0  0  0  0  0  0  0  0  0  0  0
    1.2866   -1.7050    0.0000 C   0  0  0  0  0  0  0  0  0  0  0  0
   -0.1873   -1.9837    0.0000 C   0  0  0  0  0  0  0  0  0  0  0  0
    3.2560   -0.0105    0.0000 C   0  0  0  0  0  0  0  0  0  0  0  0
    4.2344   -1.1475    0.0000 C   0  0  0  0  0  0  0  0  0  0  0  0
    5.7082   -0.8688    0.0000 C   0  0  0  0  0  0  0  0  0  0  0  0
    6.2038    0.5470    0.0000 C   0  0  0  0  0  0  0  0  0  0  0  0
    5.2254    1.6840    0.0000 C   0  0  0  0  0  0  0  0  0  0  0  0
    3.7516    1.4053    0.0000 C   0  0  0  0  0  0  0  0  0  0  0  0
   -5.0917   -0.2671    0.0000 C   0  0  0  0  0  0  0  0  0  0  0  0
   -5.5872   -1.6829    0.0000 O   0  0  0  0  0  0  0  0  0  0  0  0
   -6.0700    0.8700    0.0000 O   0  0  0  0  0  0  0  0  0  0  0  0
  1  2  1  0
  1  3  1  0
  3  4  1  6
  4  5  1  0
  5  6  1  0
  6  7  2  0
  7  8  1  0
  8  9  2  0
  9 10  1  0
  8 11  1  0
 11 12  2  0
 12 13  1  0
 13 14  2  0
 14 15  1  0
 15 16  2  0
  3 17  1  0
 17 18  2  0
 17 19  1  0
 10  5  2  0
 16 11  1  0
M  END
>  <rName>  (1829) 
NMe-D-Phe_4Ph

>  <PQ_SYMBOL>  (1829) 
NMe-D-Phe_4Ph

>  <FULL_NAME>  (1829) 
(R)-3-([1,1'-biphenyl]-4-yl)-2-(methylamino)propanoic acid

>  <IUPAC_CONDENSED>  (1829) 
Me-D-Phe(4-Ph)

>  <IUPAC>  (1829) 
(2R)-2-(methylamino)-3-(4-phenylphenyl)propanoic acid

>  <TYPE>  (1829) 
Backbone

>  <CLASS>  (1829) 
alpha

>  <ANALOG>  (1829) 
Phe

>  <MOL_WT>  (1829) 
255.317

>  <LOGP>  (1829) 
2.5686999999999998

>  <TPSA>  (1829) 
49.33

>  <POPULARITY>  (1829) 
6.6

>  <PROTECTED>  (1829) 
TRUE

>  <SMILES>  (1829) 
N(C)[C@H](Cc1(ccc(cc1)c2(ccccc2)))C(=O)O

>  <INCHIKEY>  (1829) 
ZRCUZTGKMSPCBH-OAHLLOKOSA-N

$$$$
bAla_3SMe_PhEt
     RDKit          2D

 15 15  0  0  0  0  0  0  0  0999 V2000
   -2.3375    1.3624    0.0000 N   0  0  0  0  0  0  0  0  0  0  0  0
   -2.4397   -0.1341    0.0000 C   0  0  0  0  0  0  0  0  0  0  0  0
   -1.1948   -0.9709    0.0000 C   0  0  0  0  0  0  0  0  0  0  0  0
    0.1524   -0.3111    0.0000 C   0  0  0  0  0  0  0  0  0  0  0  0
    1.3973   -1.1479    0.0000 C   0  0  0  0  0  0  0  0  0  0  0  0
    2.7444   -0.4881    0.0000 C   0  0  0  0  0  0  0  0  0  0  0  0
    2.8466    1.0084    0.0000 C   0  0  0  0  0  0  0  0  0  0  0  0
    4.1937    1.6681    0.0000 C   0  0  0  0  0  0  0  0  0  0  0  0
    5.4386    0.8314    0.0000 C   0  0  0  0  0  0  0  0  0  0  0  0
    5.3364   -0.6651    0.0000 C   0  0  0  0  0  0  0  0  0  0  0  0
    3.9893   -1.3249    0.0000 C   0  0  0  0  0  0  0  0  0  0  0  0
   -3.7868   -0.7938    0.0000 C   0  0  0  0  0  0  0  0  0  0  0  0
   -5.0317    0.0429    0.0000 C   0  0  0  0  0  0  0  0  0  0  0  0
   -4.9295    1.5395    0.0000 O   0  0  0  0  0  0  0  0  0  0  0  0
   -6.3788   -0.6168    0.0000 O   0  0  0  0  0  0  0  0  0  0  0  0
  2  1  1  1
  2  3  1  0
  3  4  1  0
  4  5  2  0
  5  6  1  0
  6  7  2  0
  7  8  1  0
  8  9  2  0
  9 10  1  0
 10 11  2  0
  2 12  1  0
 12 13  1  0
 13 14  2  0
 13 15  1  0
 11  6  1  0
M  END
>  <rName>  (1830) 
bAla_3SMe_PhEt

>  <PQ_SYMBOL>  (1830) 
bAla_3SMe_PhEt

>  <FULL_NAME>  (1830) 
(S,E)-3-amino-6-phenylhex-5-enoic acid

>  <IUPAC_CONDENSED>  (1830) 
bAla(3S-Me,PhEt)

>  <IUPAC>  (1830) 
(3S,5E)-3-amino-6-phenylhex-5-enoic acid

>  <TYPE>  (1830) 
Backbone

>  <CLASS>  (1830) 
beta

>  <ANALOG>  (1830) 
X

>  <MOL_WT>  (1830) 
205.25699999999998

>  <LOGP>  (1830) 
1.8919

>  <TPSA>  (1830) 
63.32000000000001

>  <POPULARITY>  (1830) 
3.6

>  <PROTECTED>  (1830) 
TRUE

>  <SMILES>  (1830) 
N[C@@H](C/C=C/c1ccccc1)CC(=O)O

>  <INCHIKEY>  (1830) 
BYMYELCZQGMMKN-ZPMKCOPCSA-N

$$$$
D-Phe_4Sdihydroorotamido
     RDKit          2D

 23 24  0  0  0  0  0  0  0  0999 V2000
   -5.2545    1.7445    0.0000 N   0  0  0  0  0  0  0  0  0  0  0  0
   -5.6935    0.3102    0.0000 C   0  0  0  0  0  0  0  0  0  0  0  0
   -4.6708   -0.7871    0.0000 C   0  0  0  0  0  0  0  0  0  0  0  0
   -3.2092   -0.4501    0.0000 C   0  0  0  0  0  0  0  0  0  0  0  0
   -2.7702    0.9842    0.0000 C   0  0  0  0  0  0  0  0  0  0  0  0
   -1.3086    1.3212    0.0000 C   0  0  0  0  0  0  0  0  0  0  0  0
   -0.2859    0.2239    0.0000 C   0  0  0  0  0  0  0  0  0  0  0  0
   -0.7248   -1.2104    0.0000 C   0  0  0  0  0  0  0  0  0  0  0  0
   -2.1865   -1.5475    0.0000 C   0  0  0  0  0  0  0  0  0  0  0  0
    1.1758    0.5609    0.0000 N   0  0  0  0  0  0  0  0  0  0  0  0
    2.1985   -0.5364    0.0000 C   0  0  0  0  0  0  0  0  0  0  0  0
    1.7595   -1.9707    0.0000 O   0  0  0  0  0  0  0  0  0  0  0  0
    3.6601   -0.1994    0.0000 C   0  0  0  0  0  0  0  0  0  0  0  0
    4.6828   -1.2967    0.0000 C   0  0  0  0  0  0  0  0  0  0  0  0
    6.1445   -0.9597    0.0000 C   0  0  0  0  0  0  0  0  0  0  0  0
    7.1671   -2.0570    0.0000 O   0  0  0  0  0  0  0  0  0  0  0  0
    6.5834    0.4746    0.0000 N   0  0  0  0  0  0  0  0  0  0  0  0
    5.5607    1.5720    0.0000 C   0  0  0  0  0  0  0  0  0  0  0  0
    5.9997    3.0063    0.0000 O   0  0  0  0  0  0  0  0  0  0  0  0
    4.0991    1.2349    0.0000 N   0  0  0  0  0  0  0  0  0  0  0  0
   -7.1552   -0.0268    0.0000 C   0  0  0  0  0  0  0  0  0  0  0  0
   -7.5941   -1.4612    0.0000 O   0  0  0  0  0  0  0  0  0  0  0  0
   -8.1779    1.0705    0.0000 O   0  0  0  0  0  0  0  0  0  0  0  0
  2  1  1  6
  2  3  1  0
  3  4  1  0
  4  5  1  0
  5  6  2  0
  6  7  1  0
  7  8  2  0
  8  9  1  0
  7 10  1  0
 10 11  1  0
 11 12  2  0
 13 11  1  1
 13 14  1  0
 14 15  1  0
 15 16  2  0
 15 17  1  0
 17 18  1  0
 18 19  2  0
 18 20  1  0
  2 21  1  0
 21 22  2  0
 21 23  1  0
  9  4  2  0
 20 13  1  0
M  END
>  <rName>  (1831) 
D-Phe_4Sdihydroorotamido

>  <PQ_SYMBOL>  (1831) 
D-Phe_4Sdihydroorotamido

>  <FULL_NAME>  (1831) 
(R)-2-amino-3-(4-((S)-2,6-dioxohexahydropyrimidine-4-carboxamido)phenyl)propanoic acid

>  <IUPAC_CONDENSED>  (1831) 
D-Phe(4-S-dihydroorotamido)

>  <IUPAC>  (1831) 
(2R)-2-amino-3-(4-((4S)-2,6-dioxo-1,3-diazacyclohexan-4-ylcarbonylamino)phenyl)propanoic acid

>  <TYPE>  (1831) 
Backbone

>  <CLASS>  (1831) 
alpha

>  <ANALOG>  (1831) 
Phe

>  <MOL_WT>  (1831) 
320.305

>  <LOGP>  (1831) 
-0.8223999999999989

>  <TPSA>  (1831) 
150.61999999999998

>  <POPULARITY>  (1831) 
3.1

>  <PROTECTED>  (1831) 
TRUE

>  <SMILES>  (1831) 
N[C@H](Cc1(ccc(cc1)NC(=O)[C@@H]2(CC(=O)NC(=O)N2)))C(=O)O

>  <INCHIKEY>  (1831) 
OLPMLGPIXOYZDU-ZJUUUORDSA-N

$$$$
Phe_4Ph_3CN
     RDKit          2D

 20 21  0  0  0  0  0  0  0  0999 V2000
   -3.6519    1.8556    0.0000 N   0  0  0  0  0  0  0  0  0  0  0  0
   -4.3919    0.5508    0.0000 C   0  0  0  0  0  0  0  0  0  0  0  0
   -3.6319   -0.7424    0.0000 C   0  0  0  0  0  0  0  0  0  0  0  0
   -2.1319   -0.7309    0.0000 C   0  0  0  0  0  0  0  0  0  0  0  0
   -1.3920    0.5739    0.0000 C   0  0  0  0  0  0  0  0  0  0  0  0
    0.1080    0.5854    0.0000 C   0  0  0  0  0  0  0  0  0  0  0  0
    0.8680   -0.7078    0.0000 C   0  0  0  0  0  0  0  0  0  0  0  0
    0.1280   -2.0126    0.0000 C   0  0  0  0  0  0  0  0  0  0  0  0
   -1.3720   -2.0241    0.0000 C   0  0  0  0  0  0  0  0  0  0  0  0
    2.3679   -0.6963    0.0000 C   0  0  0  0  0  0  0  0  0  0  0  0
    3.1279   -1.9895    0.0000 C   0  0  0  0  0  0  0  0  0  0  0  0
    4.6278   -1.9780    0.0000 C   0  0  0  0  0  0  0  0  0  0  0  0
    5.3678   -0.6732    0.0000 C   0  0  0  0  0  0  0  0  0  0  0  0
    4.6079    0.6200    0.0000 C   0  0  0  0  0  0  0  0  0  0  0  0
    5.3479    1.9248    0.0000 C   0  0  0  0  0  0  0  0  0  0  0  0
    6.0879    3.2295    0.0000 N   0  0  0  0  0  0  0  0  0  0  0  0
    3.1079    0.6085    0.0000 C   0  0  0  0  0  0  0  0  0  0  0  0
   -5.8918    0.5393    0.0000 C   0  0  0  0  0  0  0  0  0  0  0  0
   -6.6318   -0.7654    0.0000 O   0  0  0  0  0  0  0  0  0  0  0  0
   -6.6518    1.8326    0.0000 O   0  0  0  0  0  0  0  0  0  0  0  0
  2  1  1  1
  2  3  1  0
  3  4  1  0
  4  5  1  0
  5  6  2  0
  6  7  1  0
  7  8  2  0
  8  9  1  0
  7 10  1  0
 10 11  2  0
 11 12  1  0
 12 13  2  0
 13 14  1  0
 14 15  1  0
 15 16  3  0
 14 17  2  0
  2 18  1  0
 18 19  2  0
 18 20  1  0
  9  4  2  0
 17 10  1  0
M  END
>  <rName>  (1832) 
Phe_4Ph_3CN

>  <PQ_SYMBOL>  (1832) 
Phe_4Ph_3CN

>  <FULL_NAME>  (1832) 
(S)-2-amino-3-(3'-cyano-[1,1'-biphenyl]-4-yl)propanoic acid

>  <IUPAC_CONDENSED>  (1832) 
Phe(4-Ph(3-CN))

>  <IUPAC>  (1832) 
(2S)-2-amino-3-(4-(3-(nitrilomethyl)phenyl)phenyl)propanoic acid

>  <TYPE>  (1832) 
Backbone

>  <CLASS>  (1832) 
alpha

>  <ANALOG>  (1832) 
Phe

>  <MOL_WT>  (1832) 
266.29999999999995

>  <LOGP>  (1832) 
2.17968

>  <TPSA>  (1832) 
87.11

>  <POPULARITY>  (1832) 
3.9

>  <PROTECTED>  (1832) 
TRUE

>  <SMILES>  (1832) 
N[C@@H](Cc1(ccc(cc1)c2(cccc(C#N)c2)))C(=O)O

>  <INCHIKEY>  (1832) 
LXWUNEPCKFFJBA-HNNXBMFYSA-N

$$$$
Abu_Br
     RDKit          2D

  8  7  0  0  0  0  0  0  0  0999 V2000
   -0.2517   -1.8862    0.0000 N   0  0  0  0  0  0  0  0  0  0  0  0
   -0.3100   -0.3873    0.0000 C   0  0  0  0  0  0  0  0  0  0  0  0
    0.9590    0.4126    0.0000 C   0  0  0  0  0  0  0  0  0  0  0  0
    2.2862   -0.2864    0.0000 C   0  0  0  0  0  0  0  0  0  0  0  0
    3.5551    0.5134    0.0000 Br  0  0  0  0  0  0  0  0  0  0  0  0
   -1.6371    0.3117    0.0000 C   0  0  0  0  0  0  0  0  0  0  0  0
   -1.6954    1.8105    0.0000 O   0  0  0  0  0  0  0  0  0  0  0  0
   -2.9061   -0.4882    0.0000 O   0  0  0  0  0  0  0  0  0  0  0  0
  2  1  1  6
  2  3  1  0
  3  4  1  0
  4  5  1  0
  2  6  1  0
  6  7  2  0
  6  8  1  0
M  END
>  <rName>  (1833) 
Abu_Br

>  <PQ_SYMBOL>  (1833) 
Abu_Br

>  <FULL_NAME>  (1833) 
(S)-2-amino-4-bromobutanoic acid

>  <IUPAC_CONDENSED>  (1833) 
Abu(Br)

>  <IUPAC>  (1833) 
(2S)-2-amino-4-bromobutanoic acid

>  <TYPE>  (1833) 
Backbone

>  <CLASS>  (1833) 
alpha

>  <ANALOG>  (1833) 
X

>  <MOL_WT>  (1833) 
182.017

>  <LOGP>  (1833) 
0.18329999999999974

>  <TPSA>  (1833) 
63.32000000000001

>  <POPULARITY>  (1833) 
6.7

>  <PROTECTED>  (1833) 
TRUE

>  <SMILES>  (1833) 
N[C@@H](CCBr)C(=O)O

>  <INCHIKEY>  (1833) 
LMYNKFDVIZBWDF-VKHMYHEASA-N

$$$$
bAla_3SPh_23diOMe
     RDKit          2D

 16 16  0  0  0  0  0  0  0  0999 V2000
   -1.3353   -1.5465    0.0000 N   0  0  0  0  0  0  0  0  0  0  0  0
   -1.2249   -0.0506    0.0000 C   0  0  0  0  0  0  0  0  0  0  0  0
    0.1258    0.6017    0.0000 C   0  0  0  0  0  0  0  0  0  0  0  0
    0.2363    2.0977    0.0000 C   0  0  0  0  0  0  0  0  0  0  0  0
    1.5870    2.7500    0.0000 C   0  0  0  0  0  0  0  0  0  0  0  0
    2.8273    1.9064    0.0000 C   0  0  0  0  0  0  0  0  0  0  0  0
    2.7169    0.4105    0.0000 C   0  0  0  0  0  0  0  0  0  0  0  0
    3.9572   -0.4331    0.0000 O   0  0  0  0  0  0  0  0  0  0  0  0
    3.8467   -1.9291    0.0000 C   0  0  0  0  0  0  0  0  0  0  0  0
    1.3661   -0.2419    0.0000 C   0  0  0  0  0  0  0  0  0  0  0  0
    1.2557   -1.7378    0.0000 O   0  0  0  0  0  0  0  0  0  0  0  0
   -0.0950   -2.3901    0.0000 C   0  0  0  0  0  0  0  0  0  0  0  0
   -2.4652    0.7930    0.0000 C   0  0  0  0  0  0  0  0  0  0  0  0
   -3.8159    0.1407    0.0000 C   0  0  0  0  0  0  0  0  0  0  0  0
   -3.9264   -1.3552    0.0000 O   0  0  0  0  0  0  0  0  0  0  0  0
   -5.0562    0.9843    0.0000 O   0  0  0  0  0  0  0  0  0  0  0  0
  2  1  1  6
  2  3  1  0
  3  4  2  0
  4  5  1  0
  5  6  2  0
  6  7  1  0
  7  8  1  0
  8  9  1  0
  7 10  2  0
 10 11  1  0
 11 12  1  0
  2 13  1  0
 13 14  1  0
 14 15  2  0
 14 16  1  0
 10  3  1  0
M  END
>  <rName>  (1834) 
bAla_3SPh_23diOMe

>  <PQ_SYMBOL>  (1834) 
bAla_3SPh_23diOMe

>  <FULL_NAME>  (1834) 
(R)-3-amino-3-(2,3-dimethoxyphenyl)propanoic acid

>  <IUPAC_CONDENSED>  (1834) 
bAla(3S-Ph(2,3-diOMe))

>  <IUPAC>  (1834) 
(3R)-3-amino-3-(2,3-dimethoxyphenyl)propanoic acid

>  <TYPE>  (1834) 
Backbone

>  <CLASS>  (1834) 
beta

>  <ANALOG>  (1834) 
X

>  <MOL_WT>  (1834) 
225.24399999999994

>  <LOGP>  (1834) 
1.1783000000000001

>  <TPSA>  (1834) 
81.78

>  <POPULARITY>  (1834) 
5.3

>  <PROTECTED>  (1834) 
TRUE

>  <SMILES>  (1834) 
N[C@@H](c1(cccc(OC)c1OC))CC(=O)O

>  <INCHIKEY>  (1834) 
XZFWLSJPXJTSMZ-MRVPVSSYSA-N

$$$$
bAla_3Rthien3yl
     RDKit          2D

 11 11  0  0  0  0  0  0  0  0999 V2000
   -0.7304   -1.8619    0.0000 N   0  0  0  0  0  0  0  0  0  0  0  0
   -0.2874   -0.4288    0.0000 C   0  0  0  0  0  0  0  0  0  0  0  0
    1.1751   -0.0958    0.0000 C   0  0  0  0  0  0  0  0  0  0  0  0
    2.3042   -1.0834    0.0000 C   0  0  0  0  0  0  0  0  0  0  0  0
    3.5923   -0.3148    0.0000 C   0  0  0  0  0  0  0  0  0  0  0  0
    3.2594    1.1478    0.0000 S   0  0  0  0  0  0  0  0  0  0  0  0
    1.7655    1.2831    0.0000 C   0  0  0  0  0  0  0  0  0  0  0  0
   -1.3071    0.6714    0.0000 C   0  0  0  0  0  0  0  0  0  0  0  0
   -2.7697    0.3385    0.0000 C   0  0  0  0  0  0  0  0  0  0  0  0
   -3.2126   -1.0946    0.0000 O   0  0  0  0  0  0  0  0  0  0  0  0
   -3.7893    1.4386    0.0000 O   0  0  0  0  0  0  0  0  0  0  0  0
  2  1  1  1
  2  3  1  0
  3  4  1  0
  4  5  2  0
  5  6  1  0
  6  7  1  0
  2  8  1  0
  8  9  1  0
  9 10  2  0
  9 11  1  0
  7  3  2  0
M  END
>  <rName>  (1835) 
bAla_3Rthien3yl

>  <PQ_SYMBOL>  (1835) 
bAla_3Rthien3yl

>  <FULL_NAME>  (1835) 
(S)-3-amino-3-(thiophen-3-yl)propanoic acid

>  <IUPAC_CONDENSED>  (1835) 
bAla(3R-thien-3-yl)

>  <IUPAC>  (1835) 
(3S)-3-amino-3-(thiophen-3-yl)propanoic acid

>  <TYPE>  (1835) 
Backbone

>  <CLASS>  (1835) 
beta

>  <ANALOG>  (1835) 
X

>  <MOL_WT>  (1835) 
171.22099999999998

>  <LOGP>  (1835) 
1.2226000000000001

>  <TPSA>  (1835) 
63.32000000000001

>  <POPULARITY>  (1835) 
7.6

>  <PROTECTED>  (1835) 
TRUE

>  <SMILES>  (1835) 
N[C@H](c1(ccsc1))CC(=O)O

>  <INCHIKEY>  (1835) 
UPDVATYZQLTZOZ-LURJTMIESA-N

$$$$
NMe-D-Tyr_Me
     RDKit          2D

 15 15  0  0  0  0  0  0  0  0999 V2000
   -1.9222    1.3767    0.0000 N   0  0  0  0  0  0  0  0  0  0  0  0
   -3.0383    2.3788    0.0000 C   0  0  0  0  0  0  0  0  0  0  0  0
   -2.2320   -0.0910    0.0000 C   0  0  0  0  0  0  0  0  0  0  0  0
   -1.1158   -1.0931    0.0000 C   0  0  0  0  0  0  0  0  0  0  0  0
    0.3101   -0.6276    0.0000 C   0  0  0  0  0  0  0  0  0  0  0  0
    0.6199    0.8401    0.0000 C   0  0  0  0  0  0  0  0  0  0  0  0
    2.0458    1.3056    0.0000 C   0  0  0  0  0  0  0  0  0  0  0  0
    3.1619    0.3035    0.0000 C   0  0  0  0  0  0  0  0  0  0  0  0
    4.5879    0.7690    0.0000 O   0  0  0  0  0  0  0  0  0  0  0  0
    5.7040   -0.2331    0.0000 C   0  0  0  0  0  0  0  0  0  0  0  0
    2.8521   -1.1642    0.0000 C   0  0  0  0  0  0  0  0  0  0  0  0
    1.4262   -1.6297    0.0000 C   0  0  0  0  0  0  0  0  0  0  0  0
   -3.6579   -0.5565    0.0000 C   0  0  0  0  0  0  0  0  0  0  0  0
   -3.9677   -2.0242    0.0000 O   0  0  0  0  0  0  0  0  0  0  0  0
   -4.7740    0.4456    0.0000 O   0  0  0  0  0  0  0  0  0  0  0  0
  1  2  1  0
  1  3  1  0
  3  4  1  6
  4  5  1  0
  5  6  1  0
  6  7  2  0
  7  8  1  0
  8  9  1  0
  9 10  1  0
  8 11  2  0
 11 12  1  0
  3 13  1  0
 13 14  2  0
 13 15  1  0
 12  5  2  0
M  END
>  <rName>  (1836) 
NMe-D-Tyr_Me

>  <PQ_SYMBOL>  (1836) 
NMe-D-Tyr_Me

>  <FULL_NAME>  (1836) 
(R)-3-(4-methoxyphenyl)-2-(methylamino)propanoic acid

>  <IUPAC_CONDENSED>  (1836) 
Me-D-Tyr(Me)

>  <IUPAC>  (1836) 
(2R)-3-(4-methoxyphenyl)-2-(methylamino)propanoic acid

>  <TYPE>  (1836) 
Backbone

>  <CLASS>  (1836) 
alpha

>  <ANALOG>  (1836) 
Tyr

>  <MOL_WT>  (1836) 
209.24499999999998

>  <LOGP>  (1836) 
0.9102999999999997

>  <TPSA>  (1836) 
58.56

>  <POPULARITY>  (1836) 
9.2

>  <PROTECTED>  (1836) 
TRUE

>  <SMILES>  (1836) 
N(C)[C@H](Cc1(ccc(OC)cc1))C(=O)O

>  <INCHIKEY>  (1836) 
QESMMBKGCOSBNL-SNVBAGLBSA-N

$$$$
NMe-D-Phe_2F
     RDKit          2D

 14 14  0  0  0  0  0  0  0  0999 V2000
   -1.4630    1.4634    0.0000 N   0  0  0  0  0  0  0  0  0  0  0  0
   -2.6966    2.3168    0.0000 C   0  0  0  0  0  0  0  0  0  0  0  0
   -1.5853   -0.0316    0.0000 C   0  0  0  0  0  0  0  0  0  0  0  0
   -0.3517   -0.8850    0.0000 C   0  0  0  0  0  0  0  0  0  0  0  0
    1.0042   -0.2434    0.0000 C   0  0  0  0  0  0  0  0  0  0  0  0
    1.1264    1.2516    0.0000 C   0  0  0  0  0  0  0  0  0  0  0  0
    2.4823    1.8933    0.0000 C   0  0  0  0  0  0  0  0  0  0  0  0
    3.7159    1.0399    0.0000 C   0  0  0  0  0  0  0  0  0  0  0  0
    3.5936   -0.4551    0.0000 C   0  0  0  0  0  0  0  0  0  0  0  0
    2.2378   -1.0967    0.0000 C   0  0  0  0  0  0  0  0  0  0  0  0
    2.1155   -2.5917    0.0000 F   0  0  0  0  0  0  0  0  0  0  0  0
   -2.9411   -0.6733    0.0000 C   0  0  0  0  0  0  0  0  0  0  0  0
   -3.0633   -2.1683    0.0000 O   0  0  0  0  0  0  0  0  0  0  0  0
   -4.1747    0.1801    0.0000 O   0  0  0  0  0  0  0  0  0  0  0  0
  1  2  1  0
  1  3  1  0
  3  4  1  6
  4  5  1  0
  5  6  2  0
  6  7  1  0
  7  8  2  0
  8  9  1  0
  9 10  2  0
 10 11  1  0
  3 12  1  0
 12 13  2  0
 12 14  1  0
 10  5  1  0
M  END
>  <rName>  (1837) 
NMe-D-Phe_2F

>  <PQ_SYMBOL>  (1837) 
NMe-D-Phe_2F

>  <FULL_NAME>  (1837) 
(R)-3-(2-fluorophenyl)-2-(methylamino)propanoic acid

>  <IUPAC_CONDENSED>  (1837) 
Me-D-Phe(2-F)

>  <IUPAC>  (1837) 
(2R)-3-(2-fluorophenyl)-2-(methylamino)propanoic acid

>  <TYPE>  (1837) 
Backbone

>  <CLASS>  (1837) 
alpha

>  <ANALOG>  (1837) 
Phe

>  <MOL_WT>  (1837) 
197.20899999999995

>  <LOGP>  (1837) 
1.0407999999999997

>  <TPSA>  (1837) 
49.33

>  <POPULARITY>  (1837) 
10.6

>  <PROTECTED>  (1837) 
TRUE

>  <SMILES>  (1837) 
N(C)[C@H](Cc1(ccccc1F))C(=O)O

>  <INCHIKEY>  (1837) 
CCDCDPCWLAPDAQ-SECBINFHSA-N

$$$$
Phe_3cPr
     RDKit          2D

 15 16  0  0  0  0  0  0  0  0999 V2000
   -2.7682    1.5512    0.0000 N   0  0  0  0  0  0  0  0  0  0  0  0
   -2.7490    0.0513    0.0000 C   0  0  0  0  0  0  0  0  0  0  0  0
   -1.4404   -0.6819    0.0000 C   0  0  0  0  0  0  0  0  0  0  0  0
   -0.1511    0.0847    0.0000 C   0  0  0  0  0  0  0  0  0  0  0  0
   -0.1703    1.5845    0.0000 C   0  0  0  0  0  0  0  0  0  0  0  0
    1.1190    2.3511    0.0000 C   0  0  0  0  0  0  0  0  0  0  0  0
    2.4275    1.6179    0.0000 C   0  0  0  0  0  0  0  0  0  0  0  0
    2.4468    0.1180    0.0000 C   0  0  0  0  0  0  0  0  0  0  0  0
    1.1575   -0.6486    0.0000 C   0  0  0  0  0  0  0  0  0  0  0  0
    3.7553   -0.6153    0.0000 C   0  0  0  0  0  0  0  0  0  0  0  0
    5.2552   -0.5960    0.0000 C   0  0  0  0  0  0  0  0  0  0  0  0
    4.5219   -1.9046    0.0000 C   0  0  0  0  0  0  0  0  0  0  0  0
   -4.0383   -0.7153    0.0000 C   0  0  0  0  0  0  0  0  0  0  0  0
   -4.0190   -2.2151    0.0000 O   0  0  0  0  0  0  0  0  0  0  0  0
   -5.3468    0.0180    0.0000 O   0  0  0  0  0  0  0  0  0  0  0  0
  2  1  1  1
  2  3  1  0
  3  4  1  0
  4  5  1  0
  5  6  2  0
  6  7  1  0
  7  8  2  0
  8  9  1  0
  8 10  1  0
 10 11  1  0
 11 12  1  0
  2 13  1  0
 13 14  2  0
 13 15  1  0
  9  4  2  0
 12 10  1  0
M  END
>  <rName>  (1838) 
Phe_3cPr

>  <PQ_SYMBOL>  (1838) 
Phe_3cPr

>  <FULL_NAME>  (1838) 
(S)-2-amino-3-(3-cyclopropylphenyl)propanoic acid

>  <IUPAC_CONDENSED>  (1838) 
Phe(3-cPr)

>  <IUPAC>  (1838) 
(2S)-2-amino-3-(3-cyclopropylphenyl)propanoic acid

>  <TYPE>  (1838) 
Backbone

>  <CLASS>  (1838) 
alpha

>  <ANALOG>  (1838) 
Phe

>  <MOL_WT>  (1838) 
205.25699999999995

>  <LOGP>  (1838) 
1.5184000000000002

>  <TPSA>  (1838) 
63.32000000000001

>  <POPULARITY>  (1838) 
2.9

>  <PROTECTED>  (1838) 
TRUE

>  <SMILES>  (1838) 
N[C@@H](Cc1(cccc(c1)C2(CC2)))C(=O)O

>  <INCHIKEY>  (1838) 
YZLGSWFYMJNKHQ-NSHDSACASA-N

$$$$
Abu_I
     RDKit          2D

  8  7  0  0  0  0  0  0  0  0999 V2000
   -0.2517   -1.8862    0.0000 N   0  0  0  0  0  0  0  0  0  0  0  0
   -0.3100   -0.3873    0.0000 C   0  0  0  0  0  0  0  0  0  0  0  0
    0.9590    0.4126    0.0000 C   0  0  0  0  0  0  0  0  0  0  0  0
    2.2862   -0.2864    0.0000 C   0  0  0  0  0  0  0  0  0  0  0  0
    3.5551    0.5134    0.0000 I   0  0  0  0  0  0  0  0  0  0  0  0
   -1.6371    0.3117    0.0000 C   0  0  0  0  0  0  0  0  0  0  0  0
   -1.6954    1.8105    0.0000 O   0  0  0  0  0  0  0  0  0  0  0  0
   -2.9061   -0.4882    0.0000 O   0  0  0  0  0  0  0  0  0  0  0  0
  2  1  1  6
  2  3  1  0
  3  4  1  0
  4  5  1  0
  2  6  1  0
  6  7  2  0
  6  8  1  0
M  END
>  <rName>  (1839) 
Abu_I

>  <PQ_SYMBOL>  (1839) 
Abu_I

>  <FULL_NAME>  (1839) 
(S)-2-amino-4-iodobutanoic acid

>  <IUPAC_CONDENSED>  (1839) 
Abu(I)

>  <IUPAC>  (1839) 
(2S)-2-amino-4-iodobutanoic acid

>  <TYPE>  (1839) 
Backbone

>  <CLASS>  (1839) 
alpha

>  <ANALOG>  (1839) 
X

>  <MOL_WT>  (1839) 
229.017

>  <LOGP>  (1839) 
0.2234

>  <TPSA>  (1839) 
63.32000000000001

>  <POPULARITY>  (1839) 
4

>  <PROTECTED>  (1839) 
TRUE

>  <SMILES>  (1839) 
N[C@@H](CCI)C(=O)O

>  <INCHIKEY>  (1839) 
VXWWJFXFTVBJAH-VKHMYHEASA-N

$$$$
D-4-aza-Pip
     RDKit          2D

  9  9  0  0  0  0  0  0  0  0999 V2000
    0.4167   -1.2990    0.0000 N   0  0  0  0  0  0  0  0  0  0  0  0
   -0.3333    0.0000    0.0000 C   0  0  0  0  0  0  0  0  0  0  0  0
    0.4167    1.2990    0.0000 C   0  0  0  0  0  0  0  0  0  0  0  0
    1.9167    1.2990    0.0000 N   0  0  0  0  0  0  0  0  0  0  0  0
    2.6667    0.0000    0.0000 C   0  0  0  0  0  0  0  0  0  0  0  0
    1.9167   -1.2990    0.0000 C   0  0  0  0  0  0  0  0  0  0  0  0
   -1.8333   -0.0000    0.0000 C   0  0  0  0  0  0  0  0  0  0  0  0
   -2.5833   -1.2990    0.0000 O   0  0  0  0  0  0  0  0  0  0  0  0
   -2.5833    1.2990    0.0000 O   0  0  0  0  0  0  0  0  0  0  0  0
  1  2  1  0
  2  3  1  0
  3  4  1  0
  4  5  1  0
  5  6  1  0
  2  7  1  1
  7  8  2  0
  7  9  1  0
  6  1  1  0
M  END
>  <rName>  (1840) 
D-4-aza-Pip

>  <PQ_SYMBOL>  (1840) 
D-4-aza-Pip

>  <FULL_NAME>  (1840) 
(R)-piperazine-2-carboxylic acid

>  <IUPAC_CONDENSED>  (1840) 
D-4-aza-Pip

>  <IUPAC>  (1840) 
(2R)-piperazine-2-carboxylic acid

>  <TYPE>  (1840) 
Backbone

>  <CLASS>  (1840) 
alpha

>  <ANALOG>  (1840) 
Pro

>  <MOL_WT>  (1840) 
130.14700000000002

>  <LOGP>  (1840) 
-1.3675999999999993

>  <TPSA>  (1840) 
61.36

>  <POPULARITY>  (1840) 
10.8

>  <PROTECTED>  (1840) 
TRUE

>  <SMILES>  (1840) 
N1[C@H](CNCC1)C(=O)O

>  <INCHIKEY>  (1840) 
JSSXHAMIXJGYCS-SCSAIBSYSA-N

$$$$
aThr_Et
     RDKit          2D

 10  9  0  0  0  0  0  0  0  0999 V2000
   -0.1778    1.6944    0.0000 N   0  0  0  0  0  0  0  0  0  0  0  0
    0.5357    0.3749    0.0000 C   0  0  0  0  0  0  0  0  0  0  0  0
   -0.2503   -0.9027    0.0000 C   0  0  0  0  0  0  0  0  0  0  0  0
   -1.7497   -0.8608    0.0000 O   0  0  0  0  0  0  0  0  0  0  0  0
   -2.4632    0.4586    0.0000 C   0  0  0  0  0  0  0  0  0  0  0  0
   -3.9626    0.5005    0.0000 C   0  0  0  0  0  0  0  0  0  0  0  0
    0.4632   -2.2222    0.0000 C   0  0  0  0  0  0  0  0  0  0  0  0
    2.0351    0.3331    0.0000 C   0  0  0  0  0  0  0  0  0  0  0  0
    2.7485   -0.9864    0.0000 O   0  0  0  0  0  0  0  0  0  0  0  0
    2.8210    1.6107    0.0000 O   0  0  0  0  0  0  0  0  0  0  0  0
  2  1  1  6
  2  3  1  0
  3  4  1  0
  4  5  1  0
  5  6  1  0
  3  7  1  6
  2  8  1  0
  8  9  2  0
  8 10  1  0
M  END
>  <rName>  (1841) 
aThr_Et

>  <PQ_SYMBOL>  (1841) 
aThr_Et

>  <FULL_NAME>  (1841) 
O-ethyl-L-allothreonine

>  <IUPAC_CONDENSED>  (1841) 
aThr(Et)

>  <IUPAC>  (1841) 
(2S,3S)-2-amino-3-ethoxybutanoic acid

>  <TYPE>  (1841) 
Backbone

>  <CLASS>  (1841) 
alpha

>  <ANALOG>  (1841) 
Thr

>  <MOL_WT>  (1841) 
147.174

>  <LOGP>  (1841) 
-0.17670000000000036

>  <TPSA>  (1841) 
72.55

>  <POPULARITY>  (1841) 
7.2

>  <PROTECTED>  (1841) 
TRUE

>  <SMILES>  (1841) 
N[C@@H]([C@@H](OCC)C)C(=O)O

>  <INCHIKEY>  (1841) 
LULHTUNPBBMNSJ-WHFBIAKZSA-N

$$$$
D-aMePhe_3F
     RDKit          2D

 14 14  0  0  0  0  0  0  0  0999 V2000
   -0.9250    1.5349    0.0000 N   0  0  0  0  0  0  0  0  0  0  0  0
   -1.9283    0.4198    0.0000 C   0  0  0  0  0  0  0  0  0  0  0  0
   -3.0434    1.4231    0.0000 C   0  0  0  0  0  0  0  0  0  0  0  0
   -0.8132   -0.5834    0.0000 C   0  0  0  0  0  0  0  0  0  0  0  0
    0.6132   -0.1194    0.0000 C   0  0  0  0  0  0  0  0  0  0  0  0
    0.9245    1.3480    0.0000 C   0  0  0  0  0  0  0  0  0  0  0  0
    2.3509    1.8121    0.0000 C   0  0  0  0  0  0  0  0  0  0  0  0
    3.4660    0.8088    0.0000 C   0  0  0  0  0  0  0  0  0  0  0  0
    3.1548   -0.6585    0.0000 C   0  0  0  0  0  0  0  0  0  0  0  0
    4.2699   -1.6618    0.0000 F   0  0  0  0  0  0  0  0  0  0  0  0
    1.7284   -1.1226    0.0000 C   0  0  0  0  0  0  0  0  0  0  0  0
   -2.9315   -0.6953    0.0000 C   0  0  0  0  0  0  0  0  0  0  0  0
   -4.3989   -0.3840    0.0000 O   0  0  0  0  0  0  0  0  0  0  0  0
   -2.4674   -2.1217    0.0000 O   0  0  0  0  0  0  0  0  0  0  0  0
  1  2  1  0
  2  3  1  1
  2  4  1  0
  4  5  1  0
  5  6  2  0
  6  7  1  0
  7  8  2  0
  8  9  1  0
  9 10  1  0
  9 11  2  0
  2 12  1  0
 12 13  2  0
 12 14  1  0
 11  5  1  0
M  END
>  <rName>  (1842) 
D-aMePhe_3F

>  <PQ_SYMBOL>  (1842) 
D-aMePhe_3F

>  <FULL_NAME>  (1842) 
(R)-2-amino-3-(3-fluorophenyl)-2-methylpropanoic acid

>  <IUPAC_CONDENSED>  (1842) 
D-aMePhe(3-F)

>  <IUPAC>  (1842) 
(2R)-2-amino-2-((3-fluorophenyl)methyl)propanoic acid

>  <TYPE>  (1842) 
Backbone

>  <CLASS>  (1842) 
alpha

>  <ANALOG>  (1842) 
Phe

>  <MOL_WT>  (1842) 
197.20899999999997

>  <LOGP>  (1842) 
1.1702

>  <TPSA>  (1842) 
63.32000000000001

>  <POPULARITY>  (1842) 
5

>  <PROTECTED>  (1842) 
TRUE

>  <SMILES>  (1842) 
N[C@](C)(Cc1(cccc(F)c1))C(=O)O

>  <INCHIKEY>  (1842) 
FQZGACCJFXQSCQ-SNVBAGLBSA-N

$$$$
Aze_b_bdiMe
     RDKit          2D

  9  9  0  0  0  0  0  0  0  0999 V2000
    0.4621   -1.7817    0.0000 N   0  0  0  0  0  0  0  0  0  0  0  0
   -0.1926   -0.4322    0.0000 C   0  0  0  0  0  0  0  0  0  0  0  0
    1.1569    0.2226    0.0000 C   0  0  0  0  0  0  0  0  0  0  0  0
    0.5022    1.5721    0.0000 C   0  0  0  0  0  0  0  0  0  0  0  0
    2.5065    0.8773    0.0000 C   0  0  0  0  0  0  0  0  0  0  0  0
    1.8117   -1.1270    0.0000 C   0  0  0  0  0  0  0  0  0  0  0  0
   -1.6099    0.0592    0.0000 C   0  0  0  0  0  0  0  0  0  0  0  0
   -1.8930    1.5322    0.0000 O   0  0  0  0  0  0  0  0  0  0  0  0
   -2.7440   -0.9226    0.0000 O   0  0  0  0  0  0  0  0  0  0  0  0
  1  2  1  0
  2  3  1  0
  3  4  1  0
  3  5  1  0
  3  6  1  0
  2  7  1  6
  7  8  2  0
  7  9  1  0
  6  1  1  0
M  END
>  <rName>  (1843) 
Aze_b_bdiMe

>  <PQ_SYMBOL>  (1843) 
Aze_b_bdiMe

>  <FULL_NAME>  (1843) 
(S)-3,3-dimethylazetidine-2-carboxylic acid

>  <IUPAC_CONDENSED>  (1843) 
Aze(b,b-diMe)

>  <IUPAC>  (1843) 
(2S)-3,3-dimethylazetidine-2-carboxylic acid

>  <TYPE>  (1843) 
Backbone

>  <CLASS>  (1843) 
alpha

>  <ANALOG>  (1843) 
Pro

>  <MOL_WT>  (1843) 
129.159

>  <LOGP>  (1843) 
0.06899999999999967

>  <TPSA>  (1843) 
49.33

>  <POPULARITY>  (1843) 
6.2

>  <PROTECTED>  (1843) 
TRUE

>  <SMILES>  (1843) 
N1[C@@H](C(C)(C)C1)C(=O)O

>  <INCHIKEY>  (1843) 
AWQHNYKQPOONLR-SCSAIBSYSA-N

$$$$
bAla_2F
     RDKit          2D

  7  6  0  0  0  0  0  0  0  0999 V2000
    2.7865    0.2956    0.0000 N   0  0  0  0  0  0  0  0  0  0  0  0
    1.3548    0.7431    0.0000 C   0  0  0  0  0  0  0  0  0  0  0  0
    0.2514   -0.2730    0.0000 C   0  0  0  0  0  0  0  0  0  0  0  0
    0.5797   -1.7367    0.0000 F   0  0  0  0  0  0  0  0  0  0  0  0
   -1.1803    0.1745    0.0000 C   0  0  0  0  0  0  0  0  0  0  0  0
   -1.5086    1.6381    0.0000 O   0  0  0  0  0  0  0  0  0  0  0  0
   -2.2837   -0.8417    0.0000 O   0  0  0  0  0  0  0  0  0  0  0  0
  1  2  1  0
  2  3  1  0
  3  4  1  0
  3  5  1  0
  5  6  2  0
  5  7  1  0
M  END
>  <rName>  (1844) 
bAla_2F

>  <PQ_SYMBOL>  (1844) 
bAla_2F

>  <FULL_NAME>  (1844) 
3-amino-2-fluoropropanoic acid

>  <IUPAC_CONDENSED>  (1844) 
bAla(2-F)

>  <IUPAC>  (1844) 
3-amino-2-fluoropropanoic acid

>  <TYPE>  (1844) 
Backbone

>  <CLASS>  (1844) 
beta

>  <ANALOG>  (1844) 
X

>  <MOL_WT>  (1844) 
107.08399999999997

>  <LOGP>  (1844) 
-0.6322000000000003

>  <TPSA>  (1844) 
63.32000000000001

>  <POPULARITY>  (1844) 
8.5

>  <PROTECTED>  (1844) 
TRUE

>  <SMILES>  (1844) 
NCC(F)C(=O)O

>  <INCHIKEY>  (1844) 
OJQNRNQELNLWHH-UHFFFAOYSA-N

$$$$
Phe_4vinyl
     RDKit          2D

 14 14  0  0  0  0  0  0  0  0999 V2000
   -2.0397    1.6757    0.0000 N   0  0  0  0  0  0  0  0  0  0  0  0
   -2.4395    0.2299    0.0000 C   0  0  0  0  0  0  0  0  0  0  0  0
   -1.3873   -0.8392    0.0000 C   0  0  0  0  0  0  0  0  0  0  0  0
    0.0646   -0.4625    0.0000 C   0  0  0  0  0  0  0  0  0  0  0  0
    0.4644    0.9832    0.0000 C   0  0  0  0  0  0  0  0  0  0  0  0
    1.9164    1.3598    0.0000 C   0  0  0  0  0  0  0  0  0  0  0  0
    2.9685    0.2907    0.0000 C   0  0  0  0  0  0  0  0  0  0  0  0
    4.4205    0.6674    0.0000 C   0  0  0  0  0  0  0  0  0  0  0  0
    5.4726   -0.4017    0.0000 C   0  0  0  0  0  0  0  0  0  0  0  0
    2.5687   -1.1550    0.0000 C   0  0  0  0  0  0  0  0  0  0  0  0
    1.1168   -1.5316    0.0000 C   0  0  0  0  0  0  0  0  0  0  0  0
   -3.8914   -0.1467    0.0000 C   0  0  0  0  0  0  0  0  0  0  0  0
   -4.2912   -1.5924    0.0000 O   0  0  0  0  0  0  0  0  0  0  0  0
   -4.9436    0.9224    0.0000 O   0  0  0  0  0  0  0  0  0  0  0  0
  2  1  1  1
  2  3  1  0
  3  4  1  0
  4  5  1  0
  5  6  2  0
  6  7  1  0
  7  8  1  0
  8  9  2  0
  7 10  2  0
 10 11  1  0
  2 12  1  0
 12 13  2  0
 12 14  1  0
 11  4  2  0
M  END
>  <rName>  (1845) 
Phe_4vinyl

>  <PQ_SYMBOL>  (1845) 
Phe_4vinyl

>  <FULL_NAME>  (1845) 
(S)-2-amino-3-(4-vinylphenyl)propanoic acid

>  <IUPAC_CONDENSED>  (1845) 
Phe(4-vinyl)

>  <IUPAC>  (1845) 
(2S)-2-amino-3-(4-ethenylphenyl)propanoic acid

>  <TYPE>  (1845) 
Backbone

>  <CLASS>  (1845) 
alpha

>  <ANALOG>  (1845) 
Phe

>  <MOL_WT>  (1845) 
191.23

>  <LOGP>  (1845) 
1.284

>  <TPSA>  (1845) 
63.32000000000001

>  <POPULARITY>  (1845) 
5.6

>  <PROTECTED>  (1845) 
TRUE

>  <SMILES>  (1845) 
N[C@@H](Cc1(ccc(C=C)cc1))C(=O)O

>  <INCHIKEY>  (1845) 
FEXQXSKTRZQJLH-JTQLQIEISA-N

$$$$
D-Phe_4vinyl
     RDKit          2D

 14 14  0  0  0  0  0  0  0  0999 V2000
   -2.0397    1.6757    0.0000 N   0  0  0  0  0  0  0  0  0  0  0  0
   -2.4395    0.2299    0.0000 C   0  0  0  0  0  0  0  0  0  0  0  0
   -1.3873   -0.8392    0.0000 C   0  0  0  0  0  0  0  0  0  0  0  0
    0.0646   -0.4625    0.0000 C   0  0  0  0  0  0  0  0  0  0  0  0
    0.4644    0.9832    0.0000 C   0  0  0  0  0  0  0  0  0  0  0  0
    1.9164    1.3598    0.0000 C   0  0  0  0  0  0  0  0  0  0  0  0
    2.9685    0.2907    0.0000 C   0  0  0  0  0  0  0  0  0  0  0  0
    4.4205    0.6674    0.0000 C   0  0  0  0  0  0  0  0  0  0  0  0
    5.4726   -0.4017    0.0000 C   0  0  0  0  0  0  0  0  0  0  0  0
    2.5687   -1.1550    0.0000 C   0  0  0  0  0  0  0  0  0  0  0  0
    1.1168   -1.5316    0.0000 C   0  0  0  0  0  0  0  0  0  0  0  0
   -3.8914   -0.1467    0.0000 C   0  0  0  0  0  0  0  0  0  0  0  0
   -4.2912   -1.5924    0.0000 O   0  0  0  0  0  0  0  0  0  0  0  0
   -4.9436    0.9224    0.0000 O   0  0  0  0  0  0  0  0  0  0  0  0
  2  1  1  6
  2  3  1  0
  3  4  1  0
  4  5  1  0
  5  6  2  0
  6  7  1  0
  7  8  1  0
  8  9  2  0
  7 10  2  0
 10 11  1  0
  2 12  1  0
 12 13  2  0
 12 14  1  0
 11  4  2  0
M  END
>  <rName>  (1846) 
D-Phe_4vinyl

>  <PQ_SYMBOL>  (1846) 
D-Phe_4vinyl

>  <FULL_NAME>  (1846) 
(R)-2-amino-3-(4-vinylphenyl)propanoic acid

>  <IUPAC_CONDENSED>  (1846) 
D-Phe(4-vinyl)

>  <IUPAC>  (1846) 
(2R)-2-amino-3-(4-ethenylphenyl)propanoic acid

>  <TYPE>  (1846) 
Backbone

>  <CLASS>  (1846) 
alpha

>  <ANALOG>  (1846) 
Phe

>  <MOL_WT>  (1846) 
191.23

>  <LOGP>  (1846) 
1.284

>  <TPSA>  (1846) 
63.32000000000001

>  <POPULARITY>  (1846) 
4.5

>  <PROTECTED>  (1846) 
TRUE

>  <SMILES>  (1846) 
N[C@H](Cc1(ccc(C=C)cc1))C(=O)O

>  <INCHIKEY>  (1846) 
FEXQXSKTRZQJLH-SNVBAGLBSA-N

$$$$
D-Cys_benzhydryl
     RDKit          2D

 20 21  0  0  0  0  0  0  0  0999 V2000
   -2.9654   -2.8732    0.0000 N   0  0  0  0  0  0  0  0  0  0  0  0
   -3.1211   -1.3813    0.0000 C   0  0  0  0  0  0  0  0  0  0  0  0
   -1.9069   -0.5006    0.0000 C   0  0  0  0  0  0  0  0  0  0  0  0
   -0.5371   -1.1117    0.0000 S   0  0  0  0  0  0  0  0  0  0  0  0
    0.6771   -0.2310    0.0000 C   0  0  0  0  0  0  0  0  0  0  0  0
    2.0470   -0.8421    0.0000 C   0  0  0  0  0  0  0  0  0  0  0  0
    2.2027   -2.3340    0.0000 C   0  0  0  0  0  0  0  0  0  0  0  0
    3.5725   -2.9452    0.0000 C   0  0  0  0  0  0  0  0  0  0  0  0
    4.7867   -2.0644    0.0000 C   0  0  0  0  0  0  0  0  0  0  0  0
    4.6310   -0.5725    0.0000 C   0  0  0  0  0  0  0  0  0  0  0  0
    3.2612    0.0386    0.0000 C   0  0  0  0  0  0  0  0  0  0  0  0
    0.5215    1.2609    0.0000 C   0  0  0  0  0  0  0  0  0  0  0  0
    1.7357    2.1417    0.0000 C   0  0  0  0  0  0  0  0  0  0  0  0
    1.5800    3.6336    0.0000 C   0  0  0  0  0  0  0  0  0  0  0  0
    0.2102    4.2447    0.0000 C   0  0  0  0  0  0  0  0  0  0  0  0
   -1.0040    3.3640    0.0000 C   0  0  0  0  0  0  0  0  0  0  0  0
   -0.8484    1.8721    0.0000 C   0  0  0  0  0  0  0  0  0  0  0  0
   -4.4910   -0.7702    0.0000 C   0  0  0  0  0  0  0  0  0  0  0  0
   -4.6466    0.7217    0.0000 O   0  0  0  0  0  0  0  0  0  0  0  0
   -5.7051   -1.6510    0.0000 O   0  0  0  0  0  0  0  0  0  0  0  0
  2  1  1  1
  2  3  1  0
  3  4  1  0
  4  5  1  0
  5  6  1  0
  6  7  2  0
  7  8  1  0
  8  9  2  0
  9 10  1  0
 10 11  2  0
  5 12  1  0
 12 13  2  0
 13 14  1  0
 14 15  2  0
 15 16  1  0
 16 17  2  0
  2 18  1  0
 18 19  2  0
 18 20  1  0
 11  6  1  0
 17 12  1  0
M  END
>  <rName>  (1847) 
D-Cys_benzhydryl

>  <PQ_SYMBOL>  (1847) 
D-Cys_benzhydryl

>  <FULL_NAME>  (1847) 
S-benzhydryl-D-cysteine

>  <IUPAC_CONDENSED>  (1847) 
D-Cys(benzhydryl)

>  <IUPAC>  (1847) 
(2S)-2-amino-3-((diphenylmethyl)sulfanyl)propanoic acid

>  <TYPE>  (1847) 
Backbone

>  <CLASS>  (1847) 
alpha

>  <ANALOG>  (1847) 
Cys

>  <MOL_WT>  (1847) 
287.384

>  <LOGP>  (1847) 
2.921100000000001

>  <TPSA>  (1847) 
63.32000000000001

>  <POPULARITY>  (1847) 
5

>  <PROTECTED>  (1847) 
TRUE

>  <SMILES>  (1847) 
N[C@H](CSC(c1(ccccc1))c2(ccccc2))C(=O)O

>  <INCHIKEY>  (1847) 
SHOGZCIBPYFZRP-CQSZACIVSA-N

$$$$
Cys_MeNH2
     RDKit          2D

  9  8  0  0  0  0  0  0  0  0999 V2000
   -0.7616   -1.8791    0.0000 N   0  0  0  0  0  0  0  0  0  0  0  0
   -0.8459   -0.3815    0.0000 C   0  0  0  0  0  0  0  0  0  0  0  0
    0.4089    0.4403    0.0000 C   0  0  0  0  0  0  0  0  0  0  0  0
    1.7480   -0.2354    0.0000 S   0  0  0  0  0  0  0  0  0  0  0  0
    3.0029    0.5864    0.0000 C   0  0  0  0  0  0  0  0  0  0  0  0
    4.3420   -0.0894    0.0000 N   0  0  0  0  0  0  0  0  0  0  0  0
   -2.1851    0.2943    0.0000 C   0  0  0  0  0  0  0  0  0  0  0  0
   -2.2694    1.7919    0.0000 O   0  0  0  0  0  0  0  0  0  0  0  0
   -3.4399   -0.5275    0.0000 O   0  0  0  0  0  0  0  0  0  0  0  0
  2  1  1  6
  2  3  1  0
  3  4  1  0
  4  5  1  0
  5  6  1  0
  2  7  1  0
  7  8  2  0
  7  9  1  0
M  END
>  <rName>  (1848) 
Cys_MeNH2

>  <PQ_SYMBOL>  (1848) 
Cys_MeNH2

>  <FULL_NAME>  (1848) 
S-(aminomethyl)-L-cysteine

>  <IUPAC_CONDENSED>  (1848) 
Cys(MeNH2)

>  <IUPAC>  (1848) 
(2R)-2-amino-3-(aminomethylsulfanyl)propanoic acid

>  <TYPE>  (1848) 
Backbone

>  <CLASS>  (1848) 
alpha

>  <ANALOG>  (1848) 
Cys

>  <MOL_WT>  (1848) 
150.203

>  <LOGP>  (1848) 
-0.9522999999999999

>  <TPSA>  (1848) 
89.34

>  <POPULARITY>  (1848) 
7.3

>  <PROTECTED>  (1848) 
TRUE

>  <SMILES>  (1848) 
N[C@@H](CSCN)C(=O)O

>  <INCHIKEY>  (1848) 
JYURMMBKQADGPI-VKHMYHEASA-N

$$$$
D-aMeMet
     RDKit          2D

 10  9  0  0  0  0  0  0  0  0999 V2000
    0.0056    1.7744    0.0000 N   0  0  0  0  0  0  0  0  0  0  0  0
   -0.8858    0.5680    0.0000 C   0  0  0  0  0  0  0  0  0  0  0  0
   -2.0922    1.4594    0.0000 C   0  0  0  0  0  0  0  0  0  0  0  0
    0.3205   -0.3234    0.0000 C   0  0  0  0  0  0  0  0  0  0  0  0
    1.6957    0.2756    0.0000 C   0  0  0  0  0  0  0  0  0  0  0  0
    2.9021   -0.6158    0.0000 S   0  0  0  0  0  0  0  0  0  0  0  0
    4.2773   -0.0167    0.0000 C   0  0  0  0  0  0  0  0  0  0  0  0
   -1.7773   -0.6384    0.0000 C   0  0  0  0  0  0  0  0  0  0  0  0
   -3.2677   -0.4696    0.0000 O   0  0  0  0  0  0  0  0  0  0  0  0
   -1.1782   -2.0136    0.0000 O   0  0  0  0  0  0  0  0  0  0  0  0
  1  2  1  0
  2  3  1  1
  2  4  1  0
  4  5  1  0
  5  6  1  0
  6  7  1  0
  2  8  1  0
  8  9  2  0
  8 10  1  0
M  END
>  <rName>  (1849) 
D-aMeMet

>  <PQ_SYMBOL>  (1849) 
D-aMeMet

>  <FULL_NAME>  (1849) 
(R)-2-amino-2-methyl-4-(methylthio)butanoic acid

>  <IUPAC_CONDENSED>  (1849) 
D-aMeMet

>  <IUPAC>  (1849) 
(2R)-2-amino-2-methyl-4-(methylsulfanyl)butanoic acid

>  <TYPE>  (1849) 
Backbone

>  <CLASS>  (1849) 
alpha

>  <ANALOG>  (1849) 
Met

>  <MOL_WT>  (1849) 
163.242

>  <LOGP>  (1849) 
0.5415000000000001

>  <TPSA>  (1849) 
63.32000000000001

>  <POPULARITY>  (1849) 
6.3

>  <PROTECTED>  (1849) 
TRUE

>  <SMILES>  (1849) 
N[C@](C)(CCSC)C(=O)O

>  <INCHIKEY>  (1849) 
ZYVMPHJZWXIFDQ-ZCFIWIBFSA-N

$$$$
Thr_Et
     RDKit          2D

 10  9  0  0  0  0  0  0  0  0999 V2000
   -0.1778    1.6944    0.0000 N   0  0  0  0  0  0  0  0  0  0  0  0
    0.5357    0.3749    0.0000 C   0  0  0  0  0  0  0  0  0  0  0  0
   -0.2503   -0.9027    0.0000 C   0  0  0  0  0  0  0  0  0  0  0  0
   -1.7497   -0.8608    0.0000 O   0  0  0  0  0  0  0  0  0  0  0  0
   -2.4632    0.4586    0.0000 C   0  0  0  0  0  0  0  0  0  0  0  0
   -3.9626    0.5005    0.0000 C   0  0  0  0  0  0  0  0  0  0  0  0
    0.4632   -2.2222    0.0000 C   0  0  0  0  0  0  0  0  0  0  0  0
    2.0351    0.3331    0.0000 C   0  0  0  0  0  0  0  0  0  0  0  0
    2.7485   -0.9864    0.0000 O   0  0  0  0  0  0  0  0  0  0  0  0
    2.8210    1.6107    0.0000 O   0  0  0  0  0  0  0  0  0  0  0  0
  2  1  1  6
  2  3  1  0
  3  4  1  0
  4  5  1  0
  5  6  1  0
  3  7  1  1
  2  8  1  0
  8  9  2  0
  8 10  1  0
M  END
>  <rName>  (1850) 
Thr_Et

>  <PQ_SYMBOL>  (1850) 
Thr_Et

>  <FULL_NAME>  (1850) 
O-ethyl-L-threonine

>  <IUPAC_CONDENSED>  (1850) 
Thr(Et)

>  <IUPAC>  (1850) 
(2S,3R)-2-amino-3-ethoxybutanoic acid

>  <TYPE>  (1850) 
Backbone

>  <CLASS>  (1850) 
alpha

>  <ANALOG>  (1850) 
Thr

>  <MOL_WT>  (1850) 
147.174

>  <LOGP>  (1850) 
-0.17670000000000036

>  <TPSA>  (1850) 
72.55

>  <POPULARITY>  (1850) 
9.7

>  <PROTECTED>  (1850) 
TRUE

>  <SMILES>  (1850) 
N[C@@H]([C@H](OCC)C)C(=O)O

>  <INCHIKEY>  (1850) 
LULHTUNPBBMNSJ-UHNVWZDZSA-N

$$$$
Thr-Thr
     RDKit          2D

 15 14  0  0  0  0  0  0  0  0999 V2000
    0.3849   -0.8728    0.0000 N   0  0  0  0  0  0  0  0  0  0  0  0
   -0.8703   -0.0515    0.0000 C   0  0  0  0  0  0  0  0  0  0  0  0
   -0.7866    1.4461    0.0000 O   0  0  0  0  0  0  0  0  0  0  0  0
   -2.2091   -0.7279    0.0000 C   0  0  0  0  0  0  0  0  0  0  0  0
   -2.2927   -2.2256    0.0000 N   0  0  0  0  0  0  0  0  0  0  0  0
   -3.4643    0.0933    0.0000 C   0  0  0  0  0  0  0  0  0  0  0  0
   -3.3806    1.5910    0.0000 O   0  0  0  0  0  0  0  0  0  0  0  0
   -4.8031   -0.5831    0.0000 C   0  0  0  0  0  0  0  0  0  0  0  0
    1.7238   -0.1964    0.0000 C   0  0  0  0  0  0  0  0  0  0  0  0
    2.9790   -1.0177    0.0000 C   0  0  0  0  0  0  0  0  0  0  0  0
    2.8953   -2.5154    0.0000 O   0  0  0  0  0  0  0  0  0  0  0  0
    4.3178   -0.3413    0.0000 C   0  0  0  0  0  0  0  0  0  0  0  0
    1.8074    1.3012    0.0000 C   0  0  0  0  0  0  0  0  0  0  0  0
    0.5522    2.1225    0.0000 O   0  0  0  0  0  0  0  0  0  0  0  0
    3.1463    1.9776    0.0000 O   0  0  0  0  0  0  0  0  0  0  0  0
  1  2  1  0
  2  3  2  0
  2  4  1  0
  4  5  1  1
  4  6  1  0
  6  7  1  0
  6  8  1  1
  9  1  1  6
  9 10  1  0
 10 11  1  0
 10 12  1  1
  9 13  1  0
 13 14  2  0
 13 15  1  0
M  END
>  <rName>  (1851) 
Thr-Thr

>  <PQ_SYMBOL>  (1851) 
Thr-Thr

>  <FULL_NAME>  (1851) 
L-threonyl-L-threonine

>  <IUPAC_CONDENSED>  (1851) 
Thr-Thr

>  <IUPAC>  (1851) 
(2S,3R)-2-((1S,2R)-1-amino-2-hydroxypropylcarbonylamino)-3-hydroxybutanoic acid

>  <TYPE>  (1851) 
Backbone

>  <CLASS>  (1851) 
alpha

>  <ANALOG>  (1851) 
Thr

>  <MOL_WT>  (1851) 
220.225

>  <LOGP>  (1851) 
-2.355299999999999

>  <TPSA>  (1851) 
132.88

>  <POPULARITY>  (1851) 
7.7

>  <PROTECTED>  (1851) 
TRUE

>  <SMILES>  (1851) 
N(C(=O)[C@@H](N)[C@H](O)C)[C@@H]([C@H](O)C)C(=O)O

>  <INCHIKEY>  (1851) 
DSGIVWSDDRDJIO-ZXXMMSQZSA-N

$$$$
D-Lys_palmitoyl
     RDKit          2D

 27 26  0  0  0  0  0  0  0  0999 V2000
  -16.0714   -0.3744    0.0000 C   0  0  0  0  0  0  0  0  0  0  0  0
  -14.7691    0.3699    0.0000 C   0  0  0  0  0  0  0  0  0  0  0  0
  -13.4733   -0.3857    0.0000 C   0  0  0  0  0  0  0  0  0  0  0  0
  -12.1710    0.3586    0.0000 C   0  0  0  0  0  0  0  0  0  0  0  0
  -10.8753   -0.3970    0.0000 C   0  0  0  0  0  0  0  0  0  0  0  0
   -9.5730    0.3473    0.0000 C   0  0  0  0  0  0  0  0  0  0  0  0
   -8.2772   -0.4084    0.0000 C   0  0  0  0  0  0  0  0  0  0  0  0
   -6.9749    0.3360    0.0000 C   0  0  0  0  0  0  0  0  0  0  0  0
   -5.6792   -0.4197    0.0000 C   0  0  0  0  0  0  0  0  0  0  0  0
   -4.3769    0.3246    0.0000 C   0  0  0  0  0  0  0  0  0  0  0  0
   -3.0811   -0.4310    0.0000 C   0  0  0  0  0  0  0  0  0  0  0  0
   -1.7788    0.3133    0.0000 C   0  0  0  0  0  0  0  0  0  0  0  0
   -0.4831   -0.4423    0.0000 C   0  0  0  0  0  0  0  0  0  0  0  0
    0.8192    0.3020    0.0000 C   0  0  0  0  0  0  0  0  0  0  0  0
    2.1150   -0.4537    0.0000 C   0  0  0  0  0  0  0  0  0  0  0  0
    3.4173    0.2907    0.0000 C   0  0  0  0  0  0  0  0  0  0  0  0
    3.4238    1.7906    0.0000 O   0  0  0  0  0  0  0  0  0  0  0  0
    4.7130   -0.4650    0.0000 N   0  0  0  0  0  0  0  0  0  0  0  0
    6.0153    0.2793    0.0000 C   0  0  0  0  0  0  0  0  0  0  0  0
    7.3111   -0.4763    0.0000 C   0  0  0  0  0  0  0  0  0  0  0  0
    8.6134    0.2680    0.0000 C   0  0  0  0  0  0  0  0  0  0  0  0
    9.9091   -0.4876    0.0000 C   0  0  0  0  0  0  0  0  0  0  0  0
   11.2114    0.2567    0.0000 C   0  0  0  0  0  0  0  0  0  0  0  0
   11.2180    1.7567    0.0000 N   0  0  0  0  0  0  0  0  0  0  0  0
   12.5072   -0.4990    0.0000 C   0  0  0  0  0  0  0  0  0  0  0  0
   12.5007   -1.9990    0.0000 O   0  0  0  0  0  0  0  0  0  0  0  0
   13.8095    0.2454    0.0000 O   0  0  0  0  0  0  0  0  0  0  0  0
  1  2  1  0
  2  3  1  0
  3  4  1  0
  4  5  1  0
  5  6  1  0
  6  7  1  0
  7  8  1  0
  8  9  1  0
  9 10  1  0
 10 11  1  0
 11 12  1  0
 12 13  1  0
 13 14  1  0
 14 15  1  0
 15 16  1  0
 16 17  2  0
 16 18  1  0
 18 19  1  0
 19 20  1  0
 20 21  1  0
 21 22  1  0
 22 23  1  0
 23 24  1  1
 23 25  1  0
 25 26  2  0
 25 27  1  0
M  END
>  <rName>  (1852) 
D-Lys_palmitoyl

>  <PQ_SYMBOL>  (1852) 
D-Lys_palmitoyl

>  <FULL_NAME>  (1852) 
N6-palmitoyl-D-lysine

>  <IUPAC_CONDENSED>  (1852) 
D-Lys(palmitoyl)

>  <IUPAC>  (1852) 
(2R)-2-amino-6-(pentadecylcarbonylamino)hexanoic acid

>  <TYPE>  (1852) 
Backbone

>  <CLASS>  (1852) 
alpha

>  <ANALOG>  (1852) 
Lys

>  <MOL_WT>  (1852) 
384.6050000000002

>  <LOGP>  (1852) 
5.166100000000003

>  <TPSA>  (1852) 
92.42

>  <POPULARITY>  (1852) 
4

>  <PROTECTED>  (1852) 
TRUE

>  <SMILES>  (1852) 
CCCCCCCCCCCCCCCC(=O)NCCCC[C@@H](N)C(=O)O

>  <INCHIKEY>  (1852) 
IWKZTTDNVPAHNP-HXUWFJFHSA-N

$$$$
bAla_3SAlloc
     RDKit          2D

 12 11  0  0  0  0  0  0  0  0999 V2000
    1.0137    1.6688    0.0000 N   0  0  0  0  0  0  0  0  0  0  0  0
    0.8844    0.1744    0.0000 C   0  0  0  0  0  0  0  0  0  0  0  0
   -0.4745   -0.4608    0.0000 C   0  0  0  0  0  0  0  0  0  0  0  0
   -0.6039   -1.9552    0.0000 O   0  0  0  0  0  0  0  0  0  0  0  0
   -1.7040    0.3985    0.0000 O   0  0  0  0  0  0  0  0  0  0  0  0
   -3.0629   -0.2367    0.0000 C   0  0  0  0  0  0  0  0  0  0  0  0
   -4.2924    0.6225    0.0000 C   0  0  0  0  0  0  0  0  0  0  0  0
   -5.6513   -0.0126    0.0000 C   0  0  0  0  0  0  0  0  0  0  0  0
    2.1139   -0.6849    0.0000 C   0  0  0  0  0  0  0  0  0  0  0  0
    3.4728   -0.0497    0.0000 C   0  0  0  0  0  0  0  0  0  0  0  0
    3.6021    1.4447    0.0000 O   0  0  0  0  0  0  0  0  0  0  0  0
    4.7023   -0.9090    0.0000 O   0  0  0  0  0  0  0  0  0  0  0  0
  2  1  1  6
  2  3  1  0
  3  4  2  0
  3  5  1  0
  5  6  1  0
  6  7  1  0
  7  8  2  0
  2  9  1  0
  9 10  1  0
 10 11  2  0
 10 12  1  0
M  END
>  <rName>  (1853) 
bAla_3SAlloc

>  <PQ_SYMBOL>  (1853) 
bAla_3SAlloc

>  <FULL_NAME>  (1853) 
(R)-4-(allyloxy)-3-amino-4-oxobutanoic acid

>  <IUPAC_CONDENSED>  (1853) 
D-Asp-Oallyl

>  <IUPAC>  (1853) 
(3R)-3-amino-3-(((prop-2-en-1-yl)oxy)carbonyl)propanoic acid

>  <TYPE>  (1853) 
Backbone

>  <CLASS>  (1853) 
beta

>  <ANALOG>  (1853) 
X

>  <MOL_WT>  (1853) 
173.16799999999998

>  <LOGP>  (1853) 
-0.4824000000000002

>  <TPSA>  (1853) 
89.62000000000002

>  <POPULARITY>  (1853) 
3.6

>  <PROTECTED>  (1853) 
TRUE

>  <SMILES>  (1853) 
N[C@@H](C(=O)OCC=C)CC(=O)O

>  <INCHIKEY>  (1853) 
KHIQYWBMJLMXHH-RXMQYKEDSA-N

$$$$
D-Glu_ODmab
     RDKit          2D

 25 25  0  0  0  0  0  0  0  0999 V2000
    5.5222    2.3072    0.0000 N   0  0  0  0  0  0  0  0  0  0  0  0
    5.6390    0.8118    0.0000 C   0  0  0  0  0  0  0  0  0  0  0  0
    4.4023   -0.0371    0.0000 C   0  0  0  0  0  0  0  0  0  0  0  0
    3.0488    0.6095    0.0000 C   0  0  0  0  0  0  0  0  0  0  0  0
    1.8121   -0.2393    0.0000 C   0  0  0  0  0  0  0  0  0  0  0  0
    1.9289   -1.7348    0.0000 O   0  0  0  0  0  0  0  0  0  0  0  0
    0.4586    0.4073    0.0000 O   0  0  0  0  0  0  0  0  0  0  0  0
   -0.7781   -0.4415    0.0000 C   0  0  0  0  0  0  0  0  0  0  0  0
   -0.6613   -1.9370    0.0000 C   0  0  0  0  0  0  0  0  0  0  0  0
   -1.8980   -2.7858    0.0000 C   0  0  0  0  0  0  0  0  0  0  0  0
   -1.7813   -4.2813    0.0000 C   0  0  0  0  0  0  0  0  0  0  0  0
   -2.9348   -2.4383    0.0000 C   0  0  0  0  0  0  0  0  0  0  0  0
   -2.1316    0.2051    0.0000 C   0  0  0  0  0  0  0  0  0  0  0  0
   -3.3683   -0.6438    0.0000 C   0  0  0  0  0  0  0  0  0  0  0  0
   -3.4167   -1.7362    0.0000 O   0  0  0  0  0  0  0  0  0  0  0  0
   -4.7218    0.0028    0.0000 C   0  0  0  0  0  0  0  0  0  0  0  0
   -4.8385    1.4983    0.0000 C   0  0  0  0  0  0  0  0  0  0  0  0
   -6.2910    1.1236    0.0000 C   0  0  0  0  0  0  0  0  0  0  0  0
   -5.4597    2.8636    0.0000 C   0  0  0  0  0  0  0  0  0  0  0  0
   -3.6018    2.3471    0.0000 C   0  0  0  0  0  0  0  0  0  0  0  0
   -2.2483    1.7005    0.0000 C   0  0  0  0  0  0  0  0  0  0  0  0
   -1.0116    2.5493    0.0000 O   0  0  0  0  0  0  0  0  0  0  0  0
    6.9925    0.1652    0.0000 C   0  0  0  0  0  0  0  0  0  0  0  0
    7.1093   -1.3303    0.0000 O   0  0  0  0  0  0  0  0  0  0  0  0
    8.2292    1.0140    0.0000 O   0  0  0  0  0  0  0  0  0  0  0  0
  2  1  1  1
  2  3  1  0
  3  4  1  0
  4  5  1  0
  5  6  2  0
  5  7  1  0
  7  8  1  0
  8  9  1  0
  9 10  1  0
 10 11  1  0
 10 12  1  0
  8 13  2  0
 13 14  1  0
 14 15  2  0
 14 16  1  0
 16 17  1  0
 17 18  1  0
 17 19  1  0
 17 20  1  0
 20 21  1  0
 21 22  2  0
  2 23  1  0
 23 24  2  0
 23 25  1  0
 21 13  1  0
M  END
>  <rName>  (1854) 
D-Glu_ODmab

>  <PQ_SYMBOL>  (1854) 
D-Glu_ODmab

>  <FULL_NAME>  (1854) 
(R)-2-amino-5-(1-(4,4-dimethyl-2,6-dioxocyclohexylidene)-3-methylbutoxy)-5-oxopentanoic acid

>  <IUPAC_CONDENSED>  (1854) 
D-Glu(ODmab)

>  <IUPAC>  (1854) 
(2R)-2-amino-4-(((1-(4,4-dimethyl-2,6-dioxocyclohexylidene)-3-methylbutyl)oxy)carbonyl)butanoic acid

>  <TYPE>  (1854) 
Backbone

>  <CLASS>  (1854) 
alpha

>  <ANALOG>  (1854) 
Glu

>  <MOL_WT>  (1854) 
353.41500000000013

>  <LOGP>  (1854) 
1.9800999999999997

>  <TPSA>  (1854) 
123.76

>  <POPULARITY>  (1854) 
2.3

>  <PROTECTED>  (1854) 
TRUE

>  <SMILES>  (1854) 
N[C@H](CCC(=O)OC(CC(C)C)=C1(C(=O)CC(C)(C)CC1=O))C(=O)O

>  <INCHIKEY>  (1854) 
UJPHTRWPYMGLAC-LLVKDONJSA-N

$$$$
D-aCbzGaba
     RDKit          2D

 33 34  0  0  0  0  0  0  0  0999 V2000
   -6.6934    1.9374    0.0000 N   0  0  0  0  0  0  0  0  0  0  0  0
   -6.9899    0.4670    0.0000 C   0  0  0  0  0  0  0  0  0  0  0  0
   -5.8648   -0.5250    0.0000 C   0  0  0  0  0  0  0  0  0  0  0  0
   -6.1613   -1.9954    0.0000 O   0  0  0  0  0  0  0  0  0  0  0  0
   -4.4431   -0.0466    0.0000 O   0  0  0  0  0  0  0  0  0  0  0  0
   -3.3180   -1.0386    0.0000 C   0  0  0  0  0  0  0  0  0  0  0  0
   -1.8963   -0.5602    0.0000 C   0  0  0  0  0  0  0  0  0  0  0  0
   -1.5998    0.9102    0.0000 C   0  0  0  0  0  0  0  0  0  0  0  0
   -0.1781    1.3886    0.0000 C   0  0  0  0  0  0  0  0  0  0  0  0
    0.9470    0.3967    0.0000 C   0  0  0  0  0  0  0  0  0  0  0  0
    2.3687    0.8751    0.0000 N   0  0  0  0  0  0  0  0  0  0  0  0
    3.4938   -0.1169    0.0000 C   0  0  0  0  0  0  0  0  0  0  0  0
    3.1973   -1.5873    0.0000 C   0  0  0  0  0  0  0  0  0  0  0  0
    4.3224   -2.5793    0.0000 C   0  0  0  0  0  0  0  0  0  0  0  0
    4.0259   -4.0497    0.0000 C   0  0  0  0  0  0  0  0  0  0  0  0
    5.3936   -2.3595    0.0000 C   0  0  0  0  0  0  0  0  0  0  0  0
    4.9155    0.3615    0.0000 C   0  0  0  0  0  0  0  0  0  0  0  0
    6.0406   -0.6305    0.0000 C   0  0  0  0  0  0  0  0  0  0  0  0
    5.9567   -1.7208    0.0000 O   0  0  0  0  0  0  0  0  0  0  0  0
    7.4623   -0.1521    0.0000 C   0  0  0  0  0  0  0  0  0  0  0  0
    7.7588    1.3183    0.0000 C   0  0  0  0  0  0  0  0  0  0  0  0
    8.5403    2.5986    0.0000 C   0  0  0  0  0  0  0  0  0  0  0  0
    9.1554    0.7710    0.0000 C   0  0  0  0  0  0  0  0  0  0  0  0
    6.6336    2.3103    0.0000 C   0  0  0  0  0  0  0  0  0  0  0  0
    5.2120    1.8319    0.0000 C   0  0  0  0  0  0  0  0  0  0  0  0
    4.0868    2.8239    0.0000 O   0  0  0  0  0  0  0  0  0  0  0  0
    0.6505   -1.0737    0.0000 C   0  0  0  0  0  0  0  0  0  0  0  0
   -0.7712   -1.5522    0.0000 C   0  0  0  0  0  0  0  0  0  0  0  0
   -8.4116   -0.0114    0.0000 C   0  0  0  0  0  0  0  0  0  0  0  0
   -9.5368    0.9806    0.0000 C   0  0  0  0  0  0  0  0  0  0  0  0
  -10.9584    0.5022    0.0000 C   0  0  0  0  0  0  0  0  0  0  0  0
  -11.2549   -0.9682    0.0000 O   0  0  0  0  0  0  0  0  0  0  0  0
  -12.0836    1.4941    0.0000 O   0  0  0  0  0  0  0  0  0  0  0  0
  2  1  1  1
  2  3  1  0
  3  4  2  0
  3  5  1  0
  5  6  1  0
  6  7  1  0
  7  8  1  0
  8  9  2  0
  9 10  1  0
 10 11  1  0
 11 12  2  0
 12 13  1  0
 13 14  1  0
 14 15  1  0
 14 16  1  0
 12 17  1  0
 17 18  2  0
 18 19  1  0
 18 20  1  0
 20 21  1  0
 21 22  1  0
 21 23  1  0
 21 24  1  0
 24 25  1  0
 25 26  2  0
 10 27  2  0
 27 28  1  0
  2 29  1  0
 29 30  1  0
 30 31  1  0
 31 32  2  0
 31 33  1  0
 28  7  2  0
 25 17  1  0
M  END
>  <rName>  (1855) 
D-aCbzGaba

>  <PQ_SYMBOL>  (1855) 
D-aCbzGaba

>  <FULL_NAME>  (1855) 
(R,E)-4-amino-5-((4-((1-(2-hydroxy-4,4-dimethyl-6-oxocyclohex-1-en-1-yl)-3-methylbutylidene)amino)benzyl)oxy)-5-oxopentanoic acid

>  <IUPAC_CONDENSED>  (1855) 
D-aCbzGaba

>  <IUPAC>  (1855) 
(4R)-4-amino-4-(((4-(((1E)-1-(2-hydroxy-4,4-dimethyl-6-oxocyclohex-1-en-1-yl)-3-methylbutylidene)amino)phenyl)methoxy)carbonyl)butanoic acid

>  <TYPE>  (1855) 
Backbone

>  <CLASS>  (1855) 
gamma

>  <ANALOG>  (1855) 
X

>  <MOL_WT>  (1855) 
458.5550000000003

>  <LOGP>  (1855) 
4.2417000000000025

>  <TPSA>  (1855) 
139.28

>  <POPULARITY>  (1855) 
2.5

>  <PROTECTED>  (1855) 
TRUE

>  <SMILES>  (1855) 
N[C@@H](C(=O)OCc1ccc(/N=C(\CC(C)C)C2=C(O)CC(C)(C)CC2=O)cc1)CCC(=O)O

>  <INCHIKEY>  (1855) 
KWWLZERSYBBUCA-QPMDJBEASA-N

$$$$
Glu_OEt
     RDKit          2D

 12 11  0  0  0  0  0  0  0  0999 V2000
   -2.1767    1.9873    0.0000 N   0  0  0  0  0  0  0  0  0  0  0  0
   -2.1680    0.4873    0.0000 C   0  0  0  0  0  0  0  0  0  0  0  0
   -0.8645   -0.2551    0.0000 C   0  0  0  0  0  0  0  0  0  0  0  0
    0.4301    0.5025    0.0000 C   0  0  0  0  0  0  0  0  0  0  0  0
    1.7335   -0.2399    0.0000 C   0  0  0  0  0  0  0  0  0  0  0  0
    1.7423   -1.7398    0.0000 O   0  0  0  0  0  0  0  0  0  0  0  0
    3.0281    0.5177    0.0000 O   0  0  0  0  0  0  0  0  0  0  0  0
    4.3315   -0.2247    0.0000 C   0  0  0  0  0  0  0  0  0  0  0  0
    5.6261    0.5329    0.0000 C   0  0  0  0  0  0  0  0  0  0  0  0
   -3.4626   -0.2703    0.0000 C   0  0  0  0  0  0  0  0  0  0  0  0
   -3.4538   -1.7702    0.0000 O   0  0  0  0  0  0  0  0  0  0  0  0
   -4.7660    0.4721    0.0000 O   0  0  0  0  0  0  0  0  0  0  0  0
  2  1  1  1
  2  3  1  0
  3  4  1  0
  4  5  1  0
  5  6  2  0
  5  7  1  0
  7  8  1  0
  8  9  1  0
  2 10  1  0
 10 11  2  0
 10 12  1  0
M  END
>  <rName>  (1856) 
Glu_OEt

>  <PQ_SYMBOL>  (1856) 
Glu_OEt

>  <FULL_NAME>  (1856) 
(S)-2-amino-5-ethoxy-5-oxopentanoic acid

>  <IUPAC_CONDENSED>  (1856) 
Glu(OEt)

>  <IUPAC>  (1856) 
(2S)-2-amino-4-(ethoxycarbonyl)butanoic acid

>  <TYPE>  (1856) 
Backbone

>  <CLASS>  (1856) 
alpha

>  <ANALOG>  (1856) 
Glu

>  <MOL_WT>  (1856) 
175.18399999999997

>  <LOGP>  (1856) 
-0.25840000000000046

>  <TPSA>  (1856) 
89.62000000000002

>  <POPULARITY>  (1856) 
7.4

>  <PROTECTED>  (1856) 
TRUE

>  <SMILES>  (1856) 
N[C@@H](CCC(=O)OCC)C(=O)O

>  <INCHIKEY>  (1856) 
XMQUEQJCYRFIQS-YFKPBYRVSA-N

$$$$
Lys_but2enoyl
     RDKit          2D

 15 14  0  0  0  0  0  0  0  0999 V2000
   -4.0303   -1.8403    0.0000 N   0  0  0  0  0  0  0  0  0  0  0  0
   -4.0637   -0.3406    0.0000 C   0  0  0  0  0  0  0  0  0  0  0  0
   -2.7817    0.4381    0.0000 C   0  0  0  0  0  0  0  0  0  0  0  0
   -1.4663   -0.2827    0.0000 C   0  0  0  0  0  0  0  0  0  0  0  0
   -0.1843    0.4960    0.0000 C   0  0  0  0  0  0  0  0  0  0  0  0
    1.1311   -0.2249    0.0000 C   0  0  0  0  0  0  0  0  0  0  0  0
    2.4131    0.5539    0.0000 N   0  0  0  0  0  0  0  0  0  0  0  0
    3.7286   -0.1670    0.0000 C   0  0  0  0  0  0  0  0  0  0  0  0
    3.7620   -1.6666    0.0000 O   0  0  0  0  0  0  0  0  0  0  0  0
    5.0106    0.6118    0.0000 C   0  0  0  0  0  0  0  0  0  0  0  0
    6.3260   -0.1091    0.0000 C   0  0  0  0  0  0  0  0  0  0  0  0
    7.6080    0.6697    0.0000 C   0  0  0  0  0  0  0  0  0  0  0  0
   -5.3792    0.3802    0.0000 C   0  0  0  0  0  0  0  0  0  0  0  0
   -5.4126    1.8799    0.0000 O   0  0  0  0  0  0  0  0  0  0  0  0
   -6.6612   -0.3985    0.0000 O   0  0  0  0  0  0  0  0  0  0  0  0
  2  1  1  6
  2  3  1  0
  3  4  1  0
  4  5  1  0
  5  6  1  0
  6  7  1  0
  7  8  1  0
  8  9  2  0
  8 10  1  0
 10 11  2  0
 11 12  1  0
  2 13  1  0
 13 14  2  0
 13 15  1  0
M  END
>  <rName>  (1857) 
Lys_but2enoyl

>  <PQ_SYMBOL>  (1857) 
Lys_but2enoyl

>  <FULL_NAME>  (1857) 
(E)-N6-(but-2-enoyl)-L-lysine

>  <IUPAC_CONDENSED>  (1857) 
Lys(but-2-enoyl)

>  <IUPAC>  (1857) 
(2S)-2-amino-6-((1E)-prop-1-en-1-ylcarbonylamino)hexanoic acid

>  <TYPE>  (1857) 
Backbone

>  <CLASS>  (1857) 
alpha

>  <ANALOG>  (1857) 
Lys

>  <MOL_WT>  (1857) 
214.26500000000001

>  <LOGP>  (1857) 
0.26089999999999985

>  <TPSA>  (1857) 
92.42

>  <POPULARITY>  (1857) 
17.5

>  <PROTECTED>  (1857) 
TRUE

>  <SMILES>  (1857) 
N[C@@H](CCCCNC(=O)/C=C/C)C(=O)O

>  <INCHIKEY>  (1857) 
IZHPCCLNIDDVFG-NCJLJLRUSA-N

$$$$
Lys_Dabcyl
     RDKit          2D

 29 30  0  0  0  0  0  0  0  0999 V2000
  -11.4061    0.0190    0.0000 C   0  0  0  0  0  0  0  0  0  0  0  0
  -10.3126   -1.0078    0.0000 N   0  0  0  0  0  0  0  0  0  0  0  0
  -10.6552   -2.4682    0.0000 C   0  0  0  0  0  0  0  0  0  0  0  0
   -8.8766   -0.5743    0.0000 C   0  0  0  0  0  0  0  0  0  0  0  0
   -8.5341    0.8861    0.0000 C   0  0  0  0  0  0  0  0  0  0  0  0
   -7.0981    1.3196    0.0000 C   0  0  0  0  0  0  0  0  0  0  0  0
   -6.0047    0.2928    0.0000 C   0  0  0  0  0  0  0  0  0  0  0  0
   -4.5687    0.7263    0.0000 N   0  0  0  0  0  0  0  0  0  0  0  0
   -3.4752   -0.3005    0.0000 N   0  0  0  0  0  0  0  0  0  0  0  0
   -2.0393    0.1330    0.0000 C   0  0  0  0  0  0  0  0  0  0  0  0
   -0.9458   -0.8938    0.0000 C   0  0  0  0  0  0  0  0  0  0  0  0
    0.4902   -0.4603    0.0000 C   0  0  0  0  0  0  0  0  0  0  0  0
    0.8327    1.0001    0.0000 C   0  0  0  0  0  0  0  0  0  0  0  0
    2.2687    1.4336    0.0000 C   0  0  0  0  0  0  0  0  0  0  0  0
    2.6112    2.8939    0.0000 O   0  0  0  0  0  0  0  0  0  0  0  0
    3.3621    0.4067    0.0000 N   0  0  0  0  0  0  0  0  0  0  0  0
    4.7981    0.8403    0.0000 C   0  0  0  0  0  0  0  0  0  0  0  0
    5.8916   -0.1866    0.0000 C   0  0  0  0  0  0  0  0  0  0  0  0
    7.3275    0.2470    0.0000 C   0  0  0  0  0  0  0  0  0  0  0  0
    8.4210   -0.7799    0.0000 C   0  0  0  0  0  0  0  0  0  0  0  0
    9.8570   -0.3463    0.0000 C   0  0  0  0  0  0  0  0  0  0  0  0
   10.1995    1.1140    0.0000 N   0  0  0  0  0  0  0  0  0  0  0  0
   10.9504   -1.3732    0.0000 C   0  0  0  0  0  0  0  0  0  0  0  0
   10.6079   -2.8335    0.0000 O   0  0  0  0  0  0  0  0  0  0  0  0
   12.3864   -0.9397    0.0000 O   0  0  0  0  0  0  0  0  0  0  0  0
   -0.2607    2.0269    0.0000 C   0  0  0  0  0  0  0  0  0  0  0  0
   -1.6967    1.5934    0.0000 C   0  0  0  0  0  0  0  0  0  0  0  0
   -6.3472   -1.1676    0.0000 C   0  0  0  0  0  0  0  0  0  0  0  0
   -7.7832   -1.6011    0.0000 C   0  0  0  0  0  0  0  0  0  0  0  0
  1  2  1  0
  2  3  1  0
  2  4  1  0
  4  5  1  0
  5  6  2  0
  6  7  1  0
  7  8  1  0
  8  9  2  0
  9 10  1  0
 10 11  1  0
 11 12  2  0
 12 13  1  0
 13 14  1  0
 14 15  2  0
 14 16  1  0
 16 17  1  0
 17 18  1  0
 18 19  1  0
 19 20  1  0
 20 21  1  0
 21 22  1  6
 21 23  1  0
 23 24  2  0
 23 25  1  0
 13 26  2  0
 26 27  1  0
  7 28  2  0
 28 29  1  0
 29  4  2  0
 27 10  2  0
M  END
>  <rName>  (1858) 
Lys_Dabcyl

>  <PQ_SYMBOL>  (1858) 
Lys_Dabcyl

>  <FULL_NAME>  (1858) 
(E)-N6-(4-((4-(dimethylamino)phenyl)diazenyl)benzoyl)-L-lysine

>  <IUPAC_CONDENSED>  (1858) 
Lys(Dabcyl)

>  <IUPAC>  (1858) 
(E)-N6-(4-((4-(dimethylamino)phenyl)diazenyl)benzoyl)-L-lysine

>  <TYPE>  (1858) 
Backbone

>  <CLASS>  (1858) 
alpha

>  <ANALOG>  (1858) 
Lys

>  <MOL_WT>  (1858) 
397.4790000000001

>  <LOGP>  (1858) 
3.4800000000000013

>  <TPSA>  (1858) 
120.38000000000001

>  <POPULARITY>  (1858) 
2.9

>  <PROTECTED>  (1858) 
TRUE

>  <SMILES>  (1858) 
CN(C)c1ccc(/N=N/c2ccc(C(=O)NCCCC[C@H](N)C(=O)O)cc2)cc1

>  <INCHIKEY>  (1858) 
UVTCXMJECIVZIB-ZFZZVZNFSA-N

$$$$
Cys_PrNH2
     RDKit          2D

 11 10  0  0  0  0  0  0  0  0999 V2000
   -1.9630   -1.8884    0.0000 N   0  0  0  0  0  0  0  0  0  0  0  0
   -1.9989   -0.3888    0.0000 C   0  0  0  0  0  0  0  0  0  0  0  0
   -0.7181    0.3920    0.0000 C   0  0  0  0  0  0  0  0  0  0  0  0
    0.5985   -0.3267    0.0000 S   0  0  0  0  0  0  0  0  0  0  0  0
    1.8792    0.4541    0.0000 C   0  0  0  0  0  0  0  0  0  0  0  0
    3.1958   -0.2646    0.0000 C   0  0  0  0  0  0  0  0  0  0  0  0
    4.4765    0.5162    0.0000 C   0  0  0  0  0  0  0  0  0  0  0  0
    5.7931   -0.2025    0.0000 N   0  0  0  0  0  0  0  0  0  0  0  0
   -3.3155    0.3299    0.0000 C   0  0  0  0  0  0  0  0  0  0  0  0
   -3.3513    1.8295    0.0000 O   0  0  0  0  0  0  0  0  0  0  0  0
   -4.5962   -0.4509    0.0000 O   0  0  0  0  0  0  0  0  0  0  0  0
  2  1  1  6
  2  3  1  0
  3  4  1  0
  4  5  1  0
  5  6  1  0
  6  7  1  0
  7  8  1  0
  2  9  1  0
  9 10  2  0
  9 11  1  0
M  END
>  <rName>  (1859) 
Cys_PrNH2

>  <PQ_SYMBOL>  (1859) 
Cys_PrNH2

>  <FULL_NAME>  (1859) 
S-(3-aminopropyl)-L-cysteine

>  <IUPAC_CONDENSED>  (1859) 
Cys(PrNH2)

>  <IUPAC>  (1859) 
(2R)-2-amino-3-((3-aminopropyl)sulfanyl)propanoic acid

>  <TYPE>  (1859) 
Backbone

>  <CLASS>  (1859) 
alpha

>  <ANALOG>  (1859) 
Cys

>  <MOL_WT>  (1859) 
178.25699999999998

>  <LOGP>  (1859) 
-0.5197

>  <TPSA>  (1859) 
89.34

>  <POPULARITY>  (1859) 
12.8

>  <PROTECTED>  (1859) 
TRUE

>  <SMILES>  (1859) 
N[C@@H](CSCCCN)C(=O)O

>  <INCHIKEY>  (1859) 
KLGFHUHSBPGOAU-YFKPBYRVSA-N

$$$$
Cys_2carboxyethyl
     RDKit          2D

 12 11  0  0  0  0  0  0  0  0999 V2000
    2.4617    1.9005    0.0000 N   0  0  0  0  0  0  0  0  0  0  0  0
    2.4001    0.4018    0.0000 C   0  0  0  0  0  0  0  0  0  0  0  0
    1.0713   -0.2943    0.0000 C   0  0  0  0  0  0  0  0  0  0  0  0
   -0.1958    0.5085    0.0000 S   0  0  0  0  0  0  0  0  0  0  0  0
   -1.5245   -0.1875    0.0000 C   0  0  0  0  0  0  0  0  0  0  0  0
   -2.7917    0.6152    0.0000 C   0  0  0  0  0  0  0  0  0  0  0  0
   -4.1204   -0.0808    0.0000 C   0  0  0  0  0  0  0  0  0  0  0  0
   -4.1820   -1.5796    0.0000 O   0  0  0  0  0  0  0  0  0  0  0  0
   -5.3876    0.7219    0.0000 O   0  0  0  0  0  0  0  0  0  0  0  0
    3.6672   -0.4010    0.0000 C   0  0  0  0  0  0  0  0  0  0  0  0
    3.6056   -1.8997    0.0000 O   0  0  0  0  0  0  0  0  0  0  0  0
    4.9960    0.2950    0.0000 O   0  0  0  0  0  0  0  0  0  0  0  0
  2  1  1  6
  2  3  1  0
  3  4  1  0
  4  5  1  0
  5  6  1  0
  6  7  1  0
  7  8  2  0
  7  9  1  0
  2 10  1  0
 10 11  2  0
 10 12  1  0
M  END
>  <rName>  (1860) 
Cys_2carboxyethyl

>  <PQ_SYMBOL>  (1860) 
Cys_2carboxyethyl

>  <FULL_NAME>  (1860) 
S-(2-carboxyethyl)-L-cysteine

>  <IUPAC_CONDENSED>  (1860) 
Cys(2-carboxyethyl)

>  <IUPAC>  (1860) 
(2R)-2-amino-3-((3-hydroxy-3-oxopropyl)sulfanyl)propanoic acid

>  <TYPE>  (1860) 
Backbone

>  <CLASS>  (1860) 
alpha

>  <ANALOG>  (1860) 
Cys

>  <MOL_WT>  (1860) 
193.224

>  <LOGP>  (1860) 
-0.3938000000000004

>  <TPSA>  (1860) 
100.62000000000002

>  <POPULARITY>  (1860) 
12.9

>  <PROTECTED>  (1860) 
TRUE

>  <SMILES>  (1860) 
N[C@@H](CSCCC(=O)O)C(=O)O

>  <INCHIKEY>  (1860) 
FBPINGSGHKXIQA-BYPYZUCNSA-N

$$$$
Phe_3OPh
     RDKit          2D

 19 20  0  0  0  0  0  0  0  0999 V2000
   -4.1899    0.9582    0.0000 N   0  0  0  0  0  0  0  0  0  0  0  0
   -3.5696   -0.4075    0.0000 C   0  0  0  0  0  0  0  0  0  0  0  0
   -2.0766   -0.5531    0.0000 C   0  0  0  0  0  0  0  0  0  0  0  0
   -1.2041    0.6670    0.0000 C   0  0  0  0  0  0  0  0  0  0  0  0
   -1.8245    2.0327    0.0000 C   0  0  0  0  0  0  0  0  0  0  0  0
   -0.9519    3.2528    0.0000 C   0  0  0  0  0  0  0  0  0  0  0  0
    0.5410    3.1072    0.0000 C   0  0  0  0  0  0  0  0  0  0  0  0
    1.1614    1.7415    0.0000 C   0  0  0  0  0  0  0  0  0  0  0  0
    2.6543    1.5959    0.0000 O   0  0  0  0  0  0  0  0  0  0  0  0
    3.2746    0.2302    0.0000 C   0  0  0  0  0  0  0  0  0  0  0  0
    2.4021   -0.9899    0.0000 C   0  0  0  0  0  0  0  0  0  0  0  0
    3.0225   -2.3556    0.0000 C   0  0  0  0  0  0  0  0  0  0  0  0
    4.5154   -2.5012    0.0000 C   0  0  0  0  0  0  0  0  0  0  0  0
    5.3879   -1.2811    0.0000 C   0  0  0  0  0  0  0  0  0  0  0  0
    4.7676    0.0846    0.0000 C   0  0  0  0  0  0  0  0  0  0  0  0
    0.2888    0.5214    0.0000 C   0  0  0  0  0  0  0  0  0  0  0  0
   -4.4421   -1.6276    0.0000 C   0  0  0  0  0  0  0  0  0  0  0  0
   -3.8217   -2.9933    0.0000 O   0  0  0  0  0  0  0  0  0  0  0  0
   -5.9350   -1.4821    0.0000 O   0  0  0  0  0  0  0  0  0  0  0  0
  2  1  1  1
  2  3  1  0
  3  4  1  0
  4  5  1  0
  5  6  2  0
  6  7  1  0
  7  8  2  0
  8  9  1  0
  9 10  1  0
 10 11  2  0
 11 12  1  0
 12 13  2  0
 13 14  1  0
 14 15  2  0
  8 16  1  0
  2 17  1  0
 17 18  2  0
 17 19  1  0
 15 10  1  0
 16  4  2  0
M  END
>  <rName>  (1861) 
Phe_3OPh

>  <PQ_SYMBOL>  (1861) 
Phe_3OPh

>  <FULL_NAME>  (1861) 
(S)-2-amino-3-(3-phenoxyphenyl)propanoic acid

>  <IUPAC_CONDENSED>  (1861) 
Phe(3-OPh)

>  <IUPAC>  (1861) 
(2S)-2-amino-3-(3-phenoxyphenyl)propanoic acid

>  <TYPE>  (1861) 
Backbone

>  <CLASS>  (1861) 
alpha

>  <ANALOG>  (1861) 
Tyr

>  <MOL_WT>  (1861) 
257.289

>  <LOGP>  (1861) 
2.4333

>  <TPSA>  (1861) 
72.55

>  <POPULARITY>  (1861) 
6.4

>  <PROTECTED>  (1861) 
TRUE

>  <SMILES>  (1861) 
N[C@@H](Cc2(cccc(Oc1(ccccc1))c2))C(=O)O

>  <INCHIKEY>  (1861) 
CVEJYSBWVPCQMR-AWEZNQCLSA-N

$$$$
D-Tyr_2Me_5F
     RDKit          2D

 15 15  0  0  0  0  0  0  0  0999 V2000
   -2.0609    1.6226    0.0000 N   0  0  0  0  0  0  0  0  0  0  0  0
   -2.4694    0.1793    0.0000 C   0  0  0  0  0  0  0  0  0  0  0  0
   -1.4237   -0.8961    0.0000 C   0  0  0  0  0  0  0  0  0  0  0  0
    0.0305   -0.5283    0.0000 C   0  0  0  0  0  0  0  0  0  0  0  0
    0.4390    0.9150    0.0000 C   0  0  0  0  0  0  0  0  0  0  0  0
    1.8932    1.2829    0.0000 C   0  0  0  0  0  0  0  0  0  0  0  0
    2.3017    2.7262    0.0000 C   0  0  0  0  0  0  0  0  0  0  0  0
    2.9389    0.2075    0.0000 C   0  0  0  0  0  0  0  0  0  0  0  0
    4.3931    0.5753    0.0000 O   0  0  0  0  0  0  0  0  0  0  0  0
    2.5304   -1.2358    0.0000 C   0  0  0  0  0  0  0  0  0  0  0  0
    3.5760   -2.3113    0.0000 F   0  0  0  0  0  0  0  0  0  0  0  0
    1.0762   -1.6037    0.0000 C   0  0  0  0  0  0  0  0  0  0  0  0
   -3.9236   -0.1886    0.0000 C   0  0  0  0  0  0  0  0  0  0  0  0
   -4.3321   -1.6319    0.0000 O   0  0  0  0  0  0  0  0  0  0  0  0
   -4.9693    0.8868    0.0000 O   0  0  0  0  0  0  0  0  0  0  0  0
  2  1  1  6
  2  3  1  0
  3  4  1  0
  4  5  2  0
  5  6  1  0
  6  7  1  0
  6  8  2  0
  8  9  1  0
  8 10  1  0
 10 11  1  0
 10 12  2  0
  2 13  1  0
 13 14  2  0
 13 15  1  0
 12  4  1  0
M  END
>  <rName>  (1862) 
D-Tyr_2Me_5F

>  <PQ_SYMBOL>  (1862) 
D-Tyr_2Me_5F

>  <FULL_NAME>  (1862) 
(R)-2-amino-3-(3-fluoro-4-hydroxy-5-methylphenyl)propanoic acid

>  <IUPAC_CONDENSED>  (1862) 
D-Tyr(2-Me,5-F)

>  <IUPAC>  (1862) 
(2R)-2-amino-3-(3-fluoro-4-hydroxy-5-methylphenyl)propanoic acid

>  <TYPE>  (1862) 
Backbone

>  <CLASS>  (1862) 
alpha

>  <ANALOG>  (1862) 
Tyr

>  <MOL_WT>  (1862) 
213.20799999999997

>  <LOGP>  (1862) 
0.79412

>  <TPSA>  (1862) 
83.55

>  <POPULARITY>  (1862) 
2.9

>  <PROTECTED>  (1862) 
TRUE

>  <SMILES>  (1862) 
N[C@H](Cc1(cc(C)c(O)c(F)c1))C(=O)O

>  <INCHIKEY>  (1862) 
FPZCEHPJOPQTQD-MRVPVSSYSA-N

$$$$
bAla_3SBn_3Br
     RDKit          2D

 14 14  0  0  0  0  0  0  0  0999 V2000
   -1.4366    1.2366    0.0000 N   0  0  0  0  0  0  0  0  0  0  0  0
   -1.4962   -0.2622    0.0000 C   0  0  0  0  0  0  0  0  0  0  0  0
   -0.2280   -1.0632    0.0000 C   0  0  0  0  0  0  0  0  0  0  0  0
    1.0998   -0.3654    0.0000 C   0  0  0  0  0  0  0  0  0  0  0  0
    1.1594    1.1334    0.0000 C   0  0  0  0  0  0  0  0  0  0  0  0
    2.4872    1.8312    0.0000 C   0  0  0  0  0  0  0  0  0  0  0  0
    3.7554    1.0302    0.0000 C   0  0  0  0  0  0  0  0  0  0  0  0
    3.6958   -0.4686    0.0000 C   0  0  0  0  0  0  0  0  0  0  0  0
    4.9641   -1.2696    0.0000 Br  0  0  0  0  0  0  0  0  0  0  0  0
    2.3680   -1.1664    0.0000 C   0  0  0  0  0  0  0  0  0  0  0  0
   -2.8240   -0.9600    0.0000 C   0  0  0  0  0  0  0  0  0  0  0  0
   -4.0922   -0.1590    0.0000 C   0  0  0  0  0  0  0  0  0  0  0  0
   -4.0327    1.3398    0.0000 O   0  0  0  0  0  0  0  0  0  0  0  0
   -5.4200   -0.8568    0.0000 O   0  0  0  0  0  0  0  0  0  0  0  0
  2  1  1  1
  2  3  1  0
  3  4  1  0
  4  5  2  0
  5  6  1  0
  6  7  2  0
  7  8  1  0
  8  9  1  0
  8 10  2  0
  2 11  1  0
 11 12  1  0
 12 13  2  0
 12 14  1  0
 10  4  1  0
M  END
>  <rName>  (1863) 
bAla_3SBn_3Br

>  <PQ_SYMBOL>  (1863) 
bAla_3SBn_3Br

>  <FULL_NAME>  (1863) 
(S)-3-amino-4-(3-bromophenyl)butanoic acid

>  <IUPAC_CONDENSED>  (1863) 
bAla(3S-Bn(3-Br))

>  <IUPAC>  (1863) 
(3S)-3-amino-4-(3-bromophenyl)butanoic acid

>  <TYPE>  (1863) 
Backbone

>  <CLASS>  (1863) 
beta

>  <ANALOG>  (1863) 
Phe

>  <MOL_WT>  (1863) 
258.11499999999995

>  <LOGP>  (1863) 
1.7936

>  <TPSA>  (1863) 
63.32000000000001

>  <POPULARITY>  (1863) 
3.3

>  <PROTECTED>  (1863) 
TRUE

>  <SMILES>  (1863) 
N[C@@H](Cc1(cccc(Br)c1))CC(=O)O

>  <INCHIKEY>  (1863) 
RAIGQDRULUGHDH-VIFPVBQESA-N

$$$$
bAla_3Ph_3Me
     RDKit          2D

 13 13  0  0  0  0  0  0  0  0999 V2000
   -1.2291   -1.8553    0.0000 N   0  0  0  0  0  0  0  0  0  0  0  0
   -0.9051   -0.3907    0.0000 C   0  0  0  0  0  0  0  0  0  0  0  0
    0.5252    0.0611    0.0000 C   0  0  0  0  0  0  0  0  0  0  0  0
    0.8491    1.5257    0.0000 C   0  0  0  0  0  0  0  0  0  0  0  0
    2.2795    1.9775    0.0000 C   0  0  0  0  0  0  0  0  0  0  0  0
    3.3859    0.9646    0.0000 C   0  0  0  0  0  0  0  0  0  0  0  0
    3.0620   -0.5000    0.0000 C   0  0  0  0  0  0  0  0  0  0  0  0
    4.1684   -1.5128    0.0000 C   0  0  0  0  0  0  0  0  0  0  0  0
    1.6316   -0.9517    0.0000 C   0  0  0  0  0  0  0  0  0  0  0  0
   -2.0116    0.6222    0.0000 C   0  0  0  0  0  0  0  0  0  0  0  0
   -3.4419    0.1704    0.0000 C   0  0  0  0  0  0  0  0  0  0  0  0
   -3.7658   -1.2942    0.0000 O   0  0  0  0  0  0  0  0  0  0  0  0
   -4.5483    1.1832    0.0000 O   0  0  0  0  0  0  0  0  0  0  0  0
  1  2  1  0
  2  3  1  0
  3  4  2  0
  4  5  1  0
  5  6  2  0
  6  7  1  0
  7  8  1  0
  7  9  2  0
  2 10  1  0
 10 11  1  0
 11 12  2  0
 11 13  1  0
  9  3  1  0
M  END
>  <rName>  (1864) 
bAla_3Ph_3Me

>  <PQ_SYMBOL>  (1864) 
bAla_3Ph_3Me

>  <FULL_NAME>  (1864) 
3-amino-3-(m-tolyl)propanoic acid

>  <IUPAC_CONDENSED>  (1864) 
bAla(3-Ph(3-Me))

>  <IUPAC>  (1864) 
3-amino-3-(3-methylphenyl)propanoic acid

>  <TYPE>  (1864) 
Backbone

>  <CLASS>  (1864) 
beta

>  <ANALOG>  (1864) 
X

>  <MOL_WT>  (1864) 
179.21899999999997

>  <LOGP>  (1864) 
1.4695200000000002

>  <TPSA>  (1864) 
63.32000000000001

>  <POPULARITY>  (1864) 
7.9

>  <PROTECTED>  (1864) 
TRUE

>  <SMILES>  (1864) 
NC(c1(cccc(C)c1))CC(=O)O

>  <INCHIKEY>  (1864) 
HMLYKNGYKKJNLC-UHFFFAOYSA-N

$$$$
bAla_3RPh_2F
     RDKit          2D

 13 13  0  0  0  0  0  0  0  0999 V2000
   -1.0916   -1.7365    0.0000 N   0  0  0  0  0  0  0  0  0  0  0  0
   -0.6994   -0.2887    0.0000 C   0  0  0  0  0  0  0  0  0  0  0  0
    0.7506    0.0955    0.0000 C   0  0  0  0  0  0  0  0  0  0  0  0
    1.1428    1.5433    0.0000 C   0  0  0  0  0  0  0  0  0  0  0  0
    2.5927    1.9276    0.0000 C   0  0  0  0  0  0  0  0  0  0  0  0
    3.6505    0.8640    0.0000 C   0  0  0  0  0  0  0  0  0  0  0  0
    3.2583   -0.5838    0.0000 C   0  0  0  0  0  0  0  0  0  0  0  0
    1.8083   -0.9680    0.0000 C   0  0  0  0  0  0  0  0  0  0  0  0
    1.4161   -2.4159    0.0000 F   0  0  0  0  0  0  0  0  0  0  0  0
   -1.7571    0.7749    0.0000 C   0  0  0  0  0  0  0  0  0  0  0  0
   -3.2071    0.3906    0.0000 C   0  0  0  0  0  0  0  0  0  0  0  0
   -3.5993   -1.0572    0.0000 O   0  0  0  0  0  0  0  0  0  0  0  0
   -4.2648    1.4542    0.0000 O   0  0  0  0  0  0  0  0  0  0  0  0
  2  1  1  1
  2  3  1  0
  3  4  2  0
  4  5  1  0
  5  6  2  0
  6  7  1  0
  7  8  2  0
  8  9  1  0
  2 10  1  0
 10 11  1  0
 11 12  2  0
 11 13  1  0
  8  3  1  0
M  END
>  <rName>  (1865) 
bAla_3RPh_2F

>  <PQ_SYMBOL>  (1865) 
bAla_3RPh_2F

>  <FULL_NAME>  (1865) 
(S)-3-amino-3-(2-fluorophenyl)propanoic acid

>  <IUPAC_CONDENSED>  (1865) 
bAla(3R-Ph(2-F))

>  <IUPAC>  (1865) 
(3S)-3-amino-3-(2-fluorophenyl)propanoic acid

>  <TYPE>  (1865) 
Backbone

>  <CLASS>  (1865) 
beta

>  <ANALOG>  (1865) 
X

>  <MOL_WT>  (1865) 
183.18199999999996

>  <LOGP>  (1865) 
1.3002000000000002

>  <TPSA>  (1865) 
63.32000000000001

>  <POPULARITY>  (1865) 
9.3

>  <PROTECTED>  (1865) 
TRUE

>  <SMILES>  (1865) 
N[C@H](c1(ccccc1F))CC(=O)O

>  <INCHIKEY>  (1865) 
RSCLTSJQAQBNCE-QMMMGPOBSA-N

$$$$
bAla_3RPh_4CF3
     RDKit          2D

 16 16  0  0  0  0  0  0  0  0999 V2000
   -2.6557   -1.8716    0.0000 N   0  0  0  0  0  0  0  0  0  0  0  0
   -2.0655   -0.4926    0.0000 C   0  0  0  0  0  0  0  0  0  0  0  0
   -0.5761   -0.3143    0.0000 C   0  0  0  0  0  0  0  0  0  0  0  0
    0.0141    1.0647    0.0000 C   0  0  0  0  0  0  0  0  0  0  0  0
    1.5035    1.2430    0.0000 C   0  0  0  0  0  0  0  0  0  0  0  0
    2.4026    0.0424    0.0000 C   0  0  0  0  0  0  0  0  0  0  0  0
    1.8124   -1.3366    0.0000 C   0  0  0  0  0  0  0  0  0  0  0  0
    0.3230   -1.5149    0.0000 C   0  0  0  0  0  0  0  0  0  0  0  0
    3.8920    0.2207    0.0000 C   0  0  0  0  0  0  0  0  0  0  0  0
    5.3813    0.3991    0.0000 F   0  0  0  0  0  0  0  0  0  0  0  0
    4.0703   -1.2686    0.0000 F   0  0  0  0  0  0  0  0  0  0  0  0
    3.7136    1.7101    0.0000 F   0  0  0  0  0  0  0  0  0  0  0  0
   -2.9646    0.7080    0.0000 C   0  0  0  0  0  0  0  0  0  0  0  0
   -4.4539    0.5297    0.0000 C   0  0  0  0  0  0  0  0  0  0  0  0
   -5.0442   -0.8493    0.0000 O   0  0  0  0  0  0  0  0  0  0  0  0
   -5.3531    1.7303    0.0000 O   0  0  0  0  0  0  0  0  0  0  0  0
  2  1  1  1
  2  3  1  0
  3  4  1  0
  4  5  2  0
  5  6  1  0
  6  7  2  0
  7  8  1  0
  6  9  1  0
  9 10  1  0
  9 11  1  0
  9 12  1  0
  2 13  1  0
 13 14  1  0
 14 15  2  0
 14 16  1  0
  8  3  2  0
M  END
>  <rName>  (1866) 
bAla_3RPh_4CF3

>  <PQ_SYMBOL>  (1866) 
bAla_3RPh_4CF3

>  <FULL_NAME>  (1866) 
(S)-3-amino-3-(4-(trifluoromethyl)phenyl)propanoic acid

>  <IUPAC_CONDENSED>  (1866) 
bAla(3R-Ph(4-CF3))

>  <IUPAC>  (1866) 
(3S)-3-amino-3-(4-(trifluoromethyl)phenyl)propanoic acid

>  <TYPE>  (1866) 
Backbone

>  <CLASS>  (1866) 
beta

>  <ANALOG>  (1866) 
X

>  <MOL_WT>  (1866) 
233.18899999999994

>  <LOGP>  (1866) 
2.1799

>  <TPSA>  (1866) 
63.32000000000001

>  <POPULARITY>  (1866) 
8.3

>  <PROTECTED>  (1866) 
TRUE

>  <SMILES>  (1866) 
N[C@H](c1(ccc(cc1)C(F)(F)F))CC(=O)O

>  <INCHIKEY>  (1866) 
ABDRZHVLIRZFQO-QMMMGPOBSA-N

$$$$
Glu_OFm
     RDKit          2D

 24 26  0  0  0  0  0  0  0  0999 V2000
   -5.6895    1.8299    0.0000 N   0  0  0  0  0  0  0  0  0  0  0  0
   -5.8397    0.3374    0.0000 C   0  0  0  0  0  0  0  0  0  0  0  0
   -4.6223   -0.5389    0.0000 C   0  0  0  0  0  0  0  0  0  0  0  0
   -3.2547    0.0772    0.0000 C   0  0  0  0  0  0  0  0  0  0  0  0
   -2.0373   -0.7991    0.0000 C   0  0  0  0  0  0  0  0  0  0  0  0
   -2.1875   -2.2916    0.0000 O   0  0  0  0  0  0  0  0  0  0  0  0
   -0.6696   -0.1830    0.0000 O   0  0  0  0  0  0  0  0  0  0  0  0
    0.5478   -1.0593    0.0000 C   0  0  0  0  0  0  0  0  0  0  0  0
    1.9154   -0.4431    0.0000 C   0  0  0  0  0  0  0  0  0  0  0  0
    3.2177   -1.1874    0.0000 C   0  0  0  0  0  0  0  0  0  0  0  0
    3.5360   -2.6532    0.0000 C   0  0  0  0  0  0  0  0  0  0  0  0
    4.9646   -3.1105    0.0000 C   0  0  0  0  0  0  0  0  0  0  0  0
    6.0749   -2.1019    0.0000 C   0  0  0  0  0  0  0  0  0  0  0  0
    5.7566   -0.6360    0.0000 C   0  0  0  0  0  0  0  0  0  0  0  0
    4.3280   -0.1788    0.0000 C   0  0  0  0  0  0  0  0  0  0  0  0
    3.7118    1.1888    0.0000 C   0  0  0  0  0  0  0  0  0  0  0  0
    4.3159    2.5618    0.0000 C   0  0  0  0  0  0  0  0  0  0  0  0
    3.4289    3.7714    0.0000 C   0  0  0  0  0  0  0  0  0  0  0  0
    1.9378    3.6081    0.0000 C   0  0  0  0  0  0  0  0  0  0  0  0
    1.3338    2.2351    0.0000 C   0  0  0  0  0  0  0  0  0  0  0  0
    2.2208    1.0254    0.0000 C   0  0  0  0  0  0  0  0  0  0  0  0
   -7.2073   -0.2787    0.0000 C   0  0  0  0  0  0  0  0  0  0  0  0
   -7.3575   -1.7712    0.0000 O   0  0  0  0  0  0  0  0  0  0  0  0
   -8.4247    0.5976    0.0000 O   0  0  0  0  0  0  0  0  0  0  0  0
  2  1  1  1
  2  3  1  0
  3  4  1  0
  4  5  1  0
  5  6  2  0
  5  7  1  0
  7  8  1  0
  8  9  1  0
  9 10  1  0
 10 11  2  0
 11 12  1  0
 12 13  2  0
 13 14  1  0
 14 15  2  0
 15 16  1  0
 16 17  2  0
 17 18  1  0
 18 19  2  0
 19 20  1  0
 20 21  2  0
  2 22  1  0
 22 23  2  0
 22 24  1  0
 15 10  1  0
 21 16  1  0
 21  9  1  0
M  END
>  <rName>  (1867) 
Glu_OFm

>  <PQ_SYMBOL>  (1867) 
Glu_OFm

>  <FULL_NAME>  (1867) 
(S)-5-((9H-fluoren-9-yl)methoxy)-2-amino-5-oxopentanoic acid

>  <IUPAC_CONDENSED>  (1867) 
Glu(OFm)

>  <IUPAC>  (1867) 
(2S)-2-amino-4-((((tricyclo[7.4.0.0^{2,7}]trideca-1(13),2,4,6,9,11-hexaen-8-yl)methyl)oxy)carbonyl)butanoic acid

>  <TYPE>  (1867) 
Backbone

>  <CLASS>  (1867) 
alpha

>  <ANALOG>  (1867) 
Glu

>  <MOL_WT>  (1867) 
325.3640000000001

>  <LOGP>  (1867) 
2.5342000000000002

>  <TPSA>  (1867) 
89.62000000000002

>  <POPULARITY>  (1867) 
4.3

>  <PROTECTED>  (1867) 
TRUE

>  <SMILES>  (1867) 
N[C@@H](CCC(=O)OCC3(c1(ccccc1c2(ccccc23))))C(=O)O

>  <INCHIKEY>  (1867) 
NSLLCIQICDMDKC-KRWDZBQOSA-N

$$$$
Ser_OAla
     RDKit          2D

 12 11  0  0  0  0  0  0  0  0999 V2000
   -1.8826   -1.9413    0.0000 N   0  0  0  0  0  0  0  0  0  0  0  0
   -1.9344   -0.4422    0.0000 C   0  0  0  0  0  0  0  0  0  0  0  0
   -0.6621    0.3523    0.0000 C   0  0  0  0  0  0  0  0  0  0  0  0
    0.6621   -0.3523    0.0000 O   0  0  0  0  0  0  0  0  0  0  0  0
    1.9344    0.4422    0.0000 C   0  0  0  0  0  0  0  0  0  0  0  0
    1.8826    1.9413    0.0000 O   0  0  0  0  0  0  0  0  0  0  0  0
    3.2586   -0.2625    0.0000 C   0  0  0  0  0  0  0  0  0  0  0  0
    4.5309    0.5320    0.0000 C   0  0  0  0  0  0  0  0  0  0  0  0
    3.3105   -1.7616    0.0000 N   0  0  0  0  0  0  0  0  0  0  0  0
   -3.2586    0.2625    0.0000 C   0  0  0  0  0  0  0  0  0  0  0  0
   -3.3105    1.7616    0.0000 O   0  0  0  0  0  0  0  0  0  0  0  0
   -4.5309   -0.5320    0.0000 O   0  0  0  0  0  0  0  0  0  0  0  0
  2  1  1  6
  2  3  1  0
  3  4  1  0
  4  5  1  0
  5  6  2  0
  5  7  1  0
  7  8  1  6
  7  9  1  0
  2 10  1  0
 10 11  2  0
 10 12  1  0
M  END
>  <rName>  (1868) 
Ser_OAla

>  <PQ_SYMBOL>  (1868) 
Ser_OAla

>  <FULL_NAME>  (1868) 
O-(L-alanyl)-L-serine

>  <IUPAC_CONDENSED>  (1868) 
Ser(O-Ala)

>  <IUPAC>  (1868) 
(2S)-2-amino-3-((1S)-1-aminoethylcarbonyloxy)propanoic acid

>  <TYPE>  (1868) 
Backbone

>  <CLASS>  (1868) 
alpha

>  <ANALOG>  (1868) 
Ser

>  <MOL_WT>  (1868) 
176.17199999999997

>  <LOGP>  (1868) 
-1.7112999999999987

>  <TPSA>  (1868) 
115.64

>  <POPULARITY>  (1868) 
8.4

>  <PROTECTED>  (1868) 
TRUE

>  <SMILES>  (1868) 
N[C@@H](COC(=O)[C@H](C)N)C(=O)O

>  <INCHIKEY>  (1868) 
LUIRFVVZMTXCLG-IMJSIDKUSA-N

$$$$
Ser_OAsp
     RDKit          2D

 15 14  0  0  0  0  0  0  0  0999 V2000
   -3.0893   -1.9459    0.0000 N   0  0  0  0  0  0  0  0  0  0  0  0
   -3.1825   -0.4488    0.0000 C   0  0  0  0  0  0  0  0  0  0  0  0
   -1.9327    0.3806    0.0000 C   0  0  0  0  0  0  0  0  0  0  0  0
   -0.5895   -0.2872    0.0000 O   0  0  0  0  0  0  0  0  0  0  0  0
    0.6604    0.5421    0.0000 C   0  0  0  0  0  0  0  0  0  0  0  0
    0.5671    2.0392    0.0000 O   0  0  0  0  0  0  0  0  0  0  0  0
    2.0035   -0.1257    0.0000 C   0  0  0  0  0  0  0  0  0  0  0  0
    2.0968   -1.6228    0.0000 N   0  0  0  0  0  0  0  0  0  0  0  0
    3.2534    0.7037    0.0000 C   0  0  0  0  0  0  0  0  0  0  0  0
    4.5966    0.0359    0.0000 C   0  0  0  0  0  0  0  0  0  0  0  0
    4.6899   -1.4612    0.0000 O   0  0  0  0  0  0  0  0  0  0  0  0
    5.8465    0.8652    0.0000 O   0  0  0  0  0  0  0  0  0  0  0  0
   -4.5257    0.2190    0.0000 C   0  0  0  0  0  0  0  0  0  0  0  0
   -4.6190    1.7161    0.0000 O   0  0  0  0  0  0  0  0  0  0  0  0
   -5.7756   -0.6103    0.0000 O   0  0  0  0  0  0  0  0  0  0  0  0
  2  1  1  6
  2  3  1  0
  3  4  1  0
  4  5  1  0
  5  6  2  0
  5  7  1  0
  7  8  1  6
  7  9  1  0
  9 10  1  0
 10 11  2  0
 10 12  1  0
  2 13  1  0
 13 14  2  0
 13 15  1  0
M  END
>  <rName>  (1869) 
Ser_OAsp

>  <PQ_SYMBOL>  (1869) 
Ser_OAsp

>  <FULL_NAME>  (1869) 
(S)-3-amino-4-((S)-2-amino-2-carboxyethoxy)-4-oxobutanoic acid

>  <IUPAC_CONDENSED>  (1869) 
Ser(O-Asp)

>  <IUPAC>  (1869) 
(2S)-2-amino-3-((1S)-1-amino-3-hydroxy-3-oxopropylcarbonyloxy)propanoic acid

>  <TYPE>  (1869) 
Backbone

>  <CLASS>  (1869) 
alpha

>  <ANALOG>  (1869) 
Ser

>  <MOL_WT>  (1869) 
220.18099999999998

>  <LOGP>  (1869) 
-2.256499999999998

>  <TPSA>  (1869) 
152.94

>  <POPULARITY>  (1869) 
2.9

>  <PROTECTED>  (1869) 
TRUE

>  <SMILES>  (1869) 
N[C@@H](COC(=O)[C@@H](N)CC(=O)O)C(=O)O

>  <INCHIKEY>  (1869) 
XEBMHEOSBKVUSV-IMJSIDKUSA-N

$$$$
Phe-Phe
     RDKit          2D

 23 24  0  0  0  0  0  0  0  0999 V2000
   -0.3560    0.7750    0.0000 N   0  0  0  0  0  0  0  0  0  0  0  0
    0.7602   -0.2271    0.0000 C   0  0  0  0  0  0  0  0  0  0  0  0
    0.4504   -1.6948    0.0000 O   0  0  0  0  0  0  0  0  0  0  0  0
    2.1861    0.2385    0.0000 C   0  0  0  0  0  0  0  0  0  0  0  0
    2.4959    1.7061    0.0000 N   0  0  0  0  0  0  0  0  0  0  0  0
    3.3023   -0.7636    0.0000 C   0  0  0  0  0  0  0  0  0  0  0  0
    4.7282   -0.2980    0.0000 C   0  0  0  0  0  0  0  0  0  0  0  0
    5.8444   -1.3001    0.0000 C   0  0  0  0  0  0  0  0  0  0  0  0
    7.2703   -0.8346    0.0000 C   0  0  0  0  0  0  0  0  0  0  0  0
    7.5800    0.6331    0.0000 C   0  0  0  0  0  0  0  0  0  0  0  0
    6.4639    1.6352    0.0000 C   0  0  0  0  0  0  0  0  0  0  0  0
    5.0380    1.1696    0.0000 C   0  0  0  0  0  0  0  0  0  0  0  0
   -1.7819    0.3094    0.0000 C   0  0  0  0  0  0  0  0  0  0  0  0
   -2.8980    1.3115    0.0000 C   0  0  0  0  0  0  0  0  0  0  0  0
   -4.3239    0.8459    0.0000 C   0  0  0  0  0  0  0  0  0  0  0  0
   -5.4401    1.8480    0.0000 C   0  0  0  0  0  0  0  0  0  0  0  0
   -6.8660    1.3825    0.0000 C   0  0  0  0  0  0  0  0  0  0  0  0
   -7.1758   -0.0852    0.0000 C   0  0  0  0  0  0  0  0  0  0  0  0
   -6.0596   -1.0873    0.0000 C   0  0  0  0  0  0  0  0  0  0  0  0
   -4.6337   -0.6217    0.0000 C   0  0  0  0  0  0  0  0  0  0  0  0
   -2.0916   -1.1583    0.0000 C   0  0  0  0  0  0  0  0  0  0  0  0
   -0.9755   -2.1603    0.0000 O   0  0  0  0  0  0  0  0  0  0  0  0
   -3.5175   -1.6238    0.0000 O   0  0  0  0  0  0  0  0  0  0  0  0
  1  2  1  0
  2  3  2  0
  2  4  1  0
  4  5  1  1
  4  6  1  0
  6  7  1  0
  7  8  2  0
  8  9  1  0
  9 10  2  0
 10 11  1  0
 11 12  2  0
  1 13  1  0
 13 14  1  6
 14 15  1  0
 15 16  2  0
 16 17  1  0
 17 18  2  0
 18 19  1  0
 19 20  2  0
 13 21  1  0
 21 22  2  0
 21 23  1  0
 12  7  1  0
 20 15  1  0
M  END
>  <rName>  (1870) 
Phe-Phe

>  <PQ_SYMBOL>  (1870) 
Phe-Phe

>  <FULL_NAME>  (1870) 
L-phenylalanyl-L-phenylalanine

>  <IUPAC_CONDENSED>  (1870) 
Phe-Phe

>  <IUPAC>  (1870) 
(2S)-2-((1S)-1-amino-2-phenylethylcarbonylamino)-3-phenylpropanoic acid

>  <TYPE>  (1870) 
Backbone

>  <CLASS>  (1870) 
alpha

>  <ANALOG>  (1870) 
Phe

>  <MOL_WT>  (1870) 
312.3690000000001

>  <LOGP>  (1870) 
1.3684999999999987

>  <TPSA>  (1870) 
92.42

>  <POPULARITY>  (1870) 
12.6

>  <PROTECTED>  (1870) 
TRUE

>  <SMILES>  (1870) 
N(C(=O)[C@@H](N)Cc1(ccccc1))[C@@H](Cc2(ccccc2))C(=O)O

>  <INCHIKEY>  (1870) 
GKZIWHRNKRBEOH-HOTGVXAUSA-N

$$$$
Phe-Gly
     RDKit          2D

 16 16  0  0  0  0  0  0  0  0999 V2000
   -2.5181    0.1167    0.0000 N   0  0  0  0  0  0  0  0  0  0  0  0
   -1.3023   -0.7618    0.0000 C   0  0  0  0  0  0  0  0  0  0  0  0
   -1.4552   -2.2540    0.0000 O   0  0  0  0  0  0  0  0  0  0  0  0
    0.0664   -0.1482    0.0000 C   0  0  0  0  0  0  0  0  0  0  0  0
    0.2193    1.3440    0.0000 N   0  0  0  0  0  0  0  0  0  0  0  0
    1.2823   -1.0267    0.0000 C   0  0  0  0  0  0  0  0  0  0  0  0
    2.6510   -0.4130    0.0000 C   0  0  0  0  0  0  0  0  0  0  0  0
    2.8039    1.0792    0.0000 C   0  0  0  0  0  0  0  0  0  0  0  0
    4.1726    1.6929    0.0000 C   0  0  0  0  0  0  0  0  0  0  0  0
    5.3884    0.8143    0.0000 C   0  0  0  0  0  0  0  0  0  0  0  0
    5.2355   -0.6778    0.0000 C   0  0  0  0  0  0  0  0  0  0  0  0
    3.8668   -1.2915    0.0000 C   0  0  0  0  0  0  0  0  0  0  0  0
   -3.8868   -0.4970    0.0000 C   0  0  0  0  0  0  0  0  0  0  0  0
   -5.1027    0.3815    0.0000 C   0  0  0  0  0  0  0  0  0  0  0  0
   -4.9498    1.8737    0.0000 O   0  0  0  0  0  0  0  0  0  0  0  0
   -6.4714   -0.2322    0.0000 O   0  0  0  0  0  0  0  0  0  0  0  0
  1  2  1  0
  2  3  2  0
  2  4  1  0
  4  5  1  1
  4  6  1  0
  6  7  1  0
  7  8  2  0
  8  9  1  0
  9 10  2  0
 10 11  1  0
 11 12  2  0
  1 13  1  0
 13 14  1  0
 14 15  2  0
 14 16  1  0
 12  7  1  0
M  END
>  <rName>  (1871) 
Phe-Gly

>  <PQ_SYMBOL>  (1871) 
Phe-Gly

>  <FULL_NAME>  (1871) 
L-phenylalanylglycine

>  <IUPAC_CONDENSED>  (1871) 
Phe-Gly

>  <IUPAC>  (1871) 
2-((1S)-1-amino-2-phenylethylcarbonylamino)acetic acid

>  <TYPE>  (1871) 
Backbone

>  <CLASS>  (1871) 
alpha

>  <ANALOG>  (1871) 
Gly

>  <MOL_WT>  (1871) 
222.244

>  <LOGP>  (1871) 
-0.24280000000000018

>  <TPSA>  (1871) 
92.42

>  <POPULARITY>  (1871) 
16.1

>  <PROTECTED>  (1871) 
TRUE

>  <SMILES>  (1871) 
N(C(=O)[C@@H](N)Cc1(ccccc1))CC(=O)O

>  <INCHIKEY>  (1871) 
GLUBLISJVJFHQS-VIFPVBQESA-N

$$$$
Deg_g_gdivinyl
     RDKit          2D

 13 12  0  0  0  0  0  0  0  0999 V2000
    0.0000    1.0467    0.0000 N   0  0  0  0  0  0  0  0  0  0  0  0
    0.0000   -0.4533    0.0000 C   0  0  0  0  0  0  0  0  0  0  0  0
    1.5000   -0.4533    0.0000 C   0  0  0  0  0  0  0  0  0  0  0  0
    2.2500    0.8458    0.0000 C   0  0  0  0  0  0  0  0  0  0  0  0
    3.7500    0.8458    0.0000 C   0  0  0  0  0  0  0  0  0  0  0  0
    4.5000    2.1448    0.0000 C   0  0  0  0  0  0  0  0  0  0  0  0
   -1.5000   -0.4533    0.0000 C   0  0  0  0  0  0  0  0  0  0  0  0
   -2.2500    0.8458    0.0000 C   0  0  0  0  0  0  0  0  0  0  0  0
   -3.7500    0.8458    0.0000 C   0  0  0  0  0  0  0  0  0  0  0  0
   -4.5000    2.1448    0.0000 C   0  0  0  0  0  0  0  0  0  0  0  0
    0.0000   -1.9533    0.0000 C   0  0  0  0  0  0  0  0  0  0  0  0
    1.2990   -2.7033    0.0000 O   0  0  0  0  0  0  0  0  0  0  0  0
   -1.2990   -2.7033    0.0000 O   0  0  0  0  0  0  0  0  0  0  0  0
  1  2  1  0
  2  3  1  0
  3  4  1  0
  4  5  1  0
  5  6  2  0
  2  7  1  0
  7  8  1  0
  8  9  1  0
  9 10  2  0
  2 11  1  0
 11 12  2  0
 11 13  1  0
M  END
>  <rName>  (1872) 
Deg_g_gdivinyl

>  <PQ_SYMBOL>  (1872) 
Deg_g_gdivinyl

>  <FULL_NAME>  (1872) 
2-amino-2-(but-3-en-1-yl)hex-5-enoic acid

>  <IUPAC_CONDENSED>  (1872) 
Deg(g,g-divinyl)

>  <IUPAC>  (1872) 
2-amino-2-(but-3-en-1-yl)hex-5-enoic acid

>  <TYPE>  (1872) 
Backbone

>  <CLASS>  (1872) 
alpha

>  <ANALOG>  (1872) 
X

>  <MOL_WT>  (1872) 
183.25099999999998

>  <LOGP>  (1872) 
1.7008999999999999

>  <TPSA>  (1872) 
63.32000000000001

>  <POPULARITY>  (1872) 
3.9

>  <PROTECTED>  (1872) 
TRUE

>  <SMILES>  (1872) 
NC(CCC=C)(CCC=C)C(=O)O

>  <INCHIKEY>  (1872) 
DQTNLFHYEDUEGJ-UHFFFAOYSA-N

$$$$
aMeNle_hex5enyl
     RDKit          2D

 16 15  0  0  0  0  0  0  0  0999 V2000
   -3.4499    1.8157    0.0000 N   0  0  0  0  0  0  0  0  0  0  0  0
   -4.2317    0.5355    0.0000 C   0  0  0  0  0  0  0  0  0  0  0  0
   -5.5119    1.3173    0.0000 C   0  0  0  0  0  0  0  0  0  0  0  0
   -2.9516   -0.2463    0.0000 C   0  0  0  0  0  0  0  0  0  0  0  0
   -1.6344    0.4715    0.0000 C   0  0  0  0  0  0  0  0  0  0  0  0
   -0.3543   -0.3103    0.0000 C   0  0  0  0  0  0  0  0  0  0  0  0
    0.9629    0.4075    0.0000 C   0  0  0  0  0  0  0  0  0  0  0  0
    2.2430   -0.3743    0.0000 C   0  0  0  0  0  0  0  0  0  0  0  0
    3.5601    0.3435    0.0000 C   0  0  0  0  0  0  0  0  0  0  0  0
    4.8403   -0.4383    0.0000 C   0  0  0  0  0  0  0  0  0  0  0  0
    6.1574    0.2794    0.0000 C   0  0  0  0  0  0  0  0  0  0  0  0
    7.4376   -0.5023    0.0000 C   0  0  0  0  0  0  0  0  0  0  0  0
    8.7547    0.2154    0.0000 C   0  0  0  0  0  0  0  0  0  0  0  0
   -5.0135   -0.7447    0.0000 C   0  0  0  0  0  0  0  0  0  0  0  0
   -6.5130   -0.7077    0.0000 O   0  0  0  0  0  0  0  0  0  0  0  0
   -4.2957   -2.0618    0.0000 O   0  0  0  0  0  0  0  0  0  0  0  0
  1  2  1  0
  2  3  1  6
  2  4  1  0
  4  5  1  0
  5  6  1  0
  6  7  1  0
  7  8  1  0
  8  9  1  0
  9 10  1  0
 10 11  1  0
 11 12  1  0
 12 13  2  0
  2 14  1  0
 14 15  2  0
 14 16  1  0
M  END
>  <rName>  (1873) 
aMeNle_hex5enyl

>  <PQ_SYMBOL>  (1873) 
aMeNle_hex5enyl

>  <FULL_NAME>  (1873) 
(S)-2-amino-2-methyldodec-11-enoic acid

>  <IUPAC_CONDENSED>  (1873) 
aMeNle(hex-5-enyl)

>  <IUPAC>  (1873) 
(2S)-2-amino-2-methyldodec-11-enoic acid

>  <TYPE>  (1873) 
Backbone

>  <CLASS>  (1873) 
alpha

>  <ANALOG>  (1873) 
X

>  <MOL_WT>  (1873) 
227.34799999999998

>  <LOGP>  (1873) 
3.095200000000001

>  <TPSA>  (1873) 
63.32000000000001

>  <POPULARITY>  (1873) 
6.5

>  <PROTECTED>  (1873) 
TRUE

>  <SMILES>  (1873) 
N[C@@](C)(CCCCCCCCC=C)C(=O)O

>  <INCHIKEY>  (1873) 
NIZDOMFZGSADGL-ZDUSSCGKSA-N

$$$$
bAla_3Sbenzhydryl
     RDKit          2D

 19 20  0  0  0  0  0  0  0  0999 V2000
   -0.5750   -2.6112    0.0000 N   0  0  0  0  0  0  0  0  0  0  0  0
   -0.9213   -1.1517    0.0000 C   0  0  0  0  0  0  0  0  0  0  0  0
    0.1695   -0.1221    0.0000 C   0  0  0  0  0  0  0  0  0  0  0  0
    1.6066   -0.5519    0.0000 C   0  0  0  0  0  0  0  0  0  0  0  0
    1.9529   -2.0114    0.0000 C   0  0  0  0  0  0  0  0  0  0  0  0
    3.3900   -2.4412    0.0000 C   0  0  0  0  0  0  0  0  0  0  0  0
    4.4808   -1.4116    0.0000 C   0  0  0  0  0  0  0  0  0  0  0  0
    4.1345    0.0479    0.0000 C   0  0  0  0  0  0  0  0  0  0  0  0
    2.6974    0.4777    0.0000 C   0  0  0  0  0  0  0  0  0  0  0  0
   -0.1768    1.3374    0.0000 C   0  0  0  0  0  0  0  0  0  0  0  0
    0.9140    2.3671    0.0000 C   0  0  0  0  0  0  0  0  0  0  0  0
    0.5677    3.8265    0.0000 C   0  0  0  0  0  0  0  0  0  0  0  0
   -0.8694    4.2564    0.0000 C   0  0  0  0  0  0  0  0  0  0  0  0
   -1.9602    3.2267    0.0000 C   0  0  0  0  0  0  0  0  0  0  0  0
   -1.6139    1.7673    0.0000 C   0  0  0  0  0  0  0  0  0  0  0  0
   -2.3584   -0.7219    0.0000 C   0  0  0  0  0  0  0  0  0  0  0  0
   -3.4492   -1.7515    0.0000 C   0  0  0  0  0  0  0  0  0  0  0  0
   -3.1029   -3.2110    0.0000 O   0  0  0  0  0  0  0  0  0  0  0  0
   -4.8863   -1.3217    0.0000 O   0  0  0  0  0  0  0  0  0  0  0  0
  2  1  1  6
  2  3  1  0
  3  4  1  0
  4  5  2  0
  5  6  1  0
  6  7  2  0
  7  8  1  0
  8  9  2  0
  3 10  1  0
 10 11  2  0
 11 12  1  0
 12 13  2  0
 13 14  1  0
 14 15  2  0
  2 16  1  0
 16 17  1  0
 17 18  2  0
 17 19  1  0
  9  4  1  0
 15 10  1  0
M  END
>  <rName>  (1874) 
bAla_3Sbenzhydryl

>  <PQ_SYMBOL>  (1874) 
bAla_3Sbenzhydryl

>  <FULL_NAME>  (1874) 
(R)-3-amino-4,4-diphenylbutanoic acid

>  <IUPAC_CONDENSED>  (1874) 
bAla(3S-benzhydryl)

>  <IUPAC>  (1874) 
(3R)-3-amino-4,4-diphenylbutanoic acid

>  <TYPE>  (1874) 
Backbone

>  <CLASS>  (1874) 
beta

>  <ANALOG>  (1874) 
Phe

>  <MOL_WT>  (1874) 
255.31699999999998

>  <LOGP>  (1874) 
2.6205000000000007

>  <TPSA>  (1874) 
63.32000000000001

>  <POPULARITY>  (1874) 
3.6

>  <PROTECTED>  (1874) 
TRUE

>  <SMILES>  (1874) 
N[C@@H](C(c1(ccccc1))c2(ccccc2))CC(=O)O

>  <INCHIKEY>  (1874) 
BMWWMUHNEWGJJH-CQSZACIVSA-N

$$$$
bAla_3RPh_3OH
     RDKit          2D

 13 13  0  0  0  0  0  0  0  0999 V2000
   -1.2291   -1.8553    0.0000 N   0  0  0  0  0  0  0  0  0  0  0  0
   -0.9051   -0.3907    0.0000 C   0  0  0  0  0  0  0  0  0  0  0  0
    0.5252    0.0611    0.0000 C   0  0  0  0  0  0  0  0  0  0  0  0
    0.8491    1.5257    0.0000 C   0  0  0  0  0  0  0  0  0  0  0  0
    2.2795    1.9775    0.0000 C   0  0  0  0  0  0  0  0  0  0  0  0
    3.3859    0.9646    0.0000 C   0  0  0  0  0  0  0  0  0  0  0  0
    3.0620   -0.5000    0.0000 C   0  0  0  0  0  0  0  0  0  0  0  0
    4.1684   -1.5128    0.0000 O   0  0  0  0  0  0  0  0  0  0  0  0
    1.6316   -0.9517    0.0000 C   0  0  0  0  0  0  0  0  0  0  0  0
   -2.0116    0.6222    0.0000 C   0  0  0  0  0  0  0  0  0  0  0  0
   -3.4419    0.1704    0.0000 C   0  0  0  0  0  0  0  0  0  0  0  0
   -3.7658   -1.2942    0.0000 O   0  0  0  0  0  0  0  0  0  0  0  0
   -4.5483    1.1832    0.0000 O   0  0  0  0  0  0  0  0  0  0  0  0
  2  1  1  1
  2  3  1  0
  3  4  2  0
  4  5  1  0
  5  6  2  0
  6  7  1  0
  7  8  1  0
  7  9  2  0
  2 10  1  0
 10 11  1  0
 11 12  2  0
 11 13  1  0
  9  3  1  0
M  END
>  <rName>  (1875) 
bAla_3RPh_3OH

>  <PQ_SYMBOL>  (1875) 
bAla_3RPh_3OH

>  <FULL_NAME>  (1875) 
(S)-3-amino-3-(3-hydroxyphenyl)propanoic acid

>  <IUPAC_CONDENSED>  (1875) 
bAla(3R-Ph(3-OH))

>  <IUPAC>  (1875) 
(3S)-3-amino-3-(3-hydroxyphenyl)propanoic acid

>  <TYPE>  (1875) 
Backbone

>  <CLASS>  (1875) 
beta

>  <ANALOG>  (1875) 
X

>  <MOL_WT>  (1875) 
181.19099999999995

>  <LOGP>  (1875) 
0.8667

>  <TPSA>  (1875) 
83.55

>  <POPULARITY>  (1875) 
9.1

>  <PROTECTED>  (1875) 
TRUE

>  <SMILES>  (1875) 
N[C@H](c1(cccc(O)c1))CC(=O)O

>  <INCHIKEY>  (1875) 
NYHNEKBZZXSUNO-QMMMGPOBSA-N

$$$$
bAla_3SPh_2OMe
     RDKit          2D

 14 14  0  0  0  0  0  0  0  0999 V2000
   -1.0551   -1.6460    0.0000 N   0  0  0  0  0  0  0  0  0  0  0  0
   -0.8626   -0.1584    0.0000 C   0  0  0  0  0  0  0  0  0  0  0  0
    0.5220    0.4186    0.0000 C   0  0  0  0  0  0  0  0  0  0  0  0
    0.7146    1.9062    0.0000 C   0  0  0  0  0  0  0  0  0  0  0  0
    2.0991    2.4832    0.0000 C   0  0  0  0  0  0  0  0  0  0  0  0
    3.2911    1.5726    0.0000 C   0  0  0  0  0  0  0  0  0  0  0  0
    3.0986    0.0851    0.0000 C   0  0  0  0  0  0  0  0  0  0  0  0
    1.7140   -0.4920    0.0000 C   0  0  0  0  0  0  0  0  0  0  0  0
    1.5214   -1.9796    0.0000 O   0  0  0  0  0  0  0  0  0  0  0  0
    2.7134   -2.8901    0.0000 C   0  0  0  0  0  0  0  0  0  0  0  0
   -2.0546    0.7521    0.0000 C   0  0  0  0  0  0  0  0  0  0  0  0
   -3.4392    0.1751    0.0000 C   0  0  0  0  0  0  0  0  0  0  0  0
   -3.6317   -1.3125    0.0000 O   0  0  0  0  0  0  0  0  0  0  0  0
   -4.6312    1.0857    0.0000 O   0  0  0  0  0  0  0  0  0  0  0  0
  2  1  1  6
  2  3  1  0
  3  4  2  0
  4  5  1  0
  5  6  2  0
  6  7  1  0
  7  8  2  0
  8  9  1  0
  9 10  1  0
  2 11  1  0
 11 12  1  0
 12 13  2  0
 12 14  1  0
  8  3  1  0
M  END
>  <rName>  (1876) 
bAla_3SPh_2OMe

>  <PQ_SYMBOL>  (1876) 
bAla_3SPh_2OMe

>  <FULL_NAME>  (1876) 
(R)-3-amino-3-(2-methoxyphenyl)propanoic acid

>  <IUPAC_CONDENSED>  (1876) 
bAla(3S-Ph(2-OMe))

>  <IUPAC>  (1876) 
(3R)-3-amino-3-(2-methoxyphenyl)propanoic acid

>  <TYPE>  (1876) 
Backbone

>  <CLASS>  (1876) 
beta

>  <ANALOG>  (1876) 
X

>  <MOL_WT>  (1876) 
195.21799999999996

>  <LOGP>  (1876) 
1.1697

>  <TPSA>  (1876) 
72.55

>  <POPULARITY>  (1876) 
7.5

>  <PROTECTED>  (1876) 
TRUE

>  <SMILES>  (1876) 
N[C@@H](c1(ccccc1OC))CC(=O)O

>  <INCHIKEY>  (1876) 
UAZGIQATDPCZHH-MRVPVSSYSA-N

$$$$
bAla_3SPh_4OMe
     RDKit          2D

 14 14  0  0  0  0  0  0  0  0999 V2000
   -1.9239   -1.8882    0.0000 N   0  0  0  0  0  0  0  0  0  0  0  0
   -1.4367   -0.4695    0.0000 C   0  0  0  0  0  0  0  0  0  0  0  0
    0.0356   -0.1821    0.0000 C   0  0  0  0  0  0  0  0  0  0  0  0
    0.5228    1.2365    0.0000 C   0  0  0  0  0  0  0  0  0  0  0  0
    1.9950    1.5239    0.0000 C   0  0  0  0  0  0  0  0  0  0  0  0
    2.9800    0.3926    0.0000 C   0  0  0  0  0  0  0  0  0  0  0  0
    4.4522    0.6799    0.0000 O   0  0  0  0  0  0  0  0  0  0  0  0
    5.4372   -0.4514    0.0000 C   0  0  0  0  0  0  0  0  0  0  0  0
    2.4927   -1.0261    0.0000 C   0  0  0  0  0  0  0  0  0  0  0  0
    1.0205   -1.3134    0.0000 C   0  0  0  0  0  0  0  0  0  0  0  0
   -2.4216    0.6618    0.0000 C   0  0  0  0  0  0  0  0  0  0  0  0
   -3.8939    0.3744    0.0000 C   0  0  0  0  0  0  0  0  0  0  0  0
   -4.3811   -1.0442    0.0000 O   0  0  0  0  0  0  0  0  0  0  0  0
   -4.8788    1.5057    0.0000 O   0  0  0  0  0  0  0  0  0  0  0  0
  2  1  1  6
  2  3  1  0
  3  4  1  0
  4  5  2  0
  5  6  1  0
  6  7  1  0
  7  8  1  0
  6  9  2  0
  9 10  1  0
  2 11  1  0
 11 12  1  0
 12 13  2  0
 12 14  1  0
 10  3  2  0
M  END
>  <rName>  (1877) 
bAla_3SPh_4OMe

>  <PQ_SYMBOL>  (1877) 
bAla_3SPh_4OMe

>  <FULL_NAME>  (1877) 
(R)-3-amino-3-(4-methoxyphenyl)propanoic acid

>  <IUPAC_CONDENSED>  (1877) 
bAla(3S-Ph(4-OMe))

>  <IUPAC>  (1877) 
(3R)-3-amino-3-(4-methoxyphenyl)propanoic acid

>  <TYPE>  (1877) 
Backbone

>  <CLASS>  (1877) 
beta

>  <ANALOG>  (1877) 
X

>  <MOL_WT>  (1877) 
195.21799999999996

>  <LOGP>  (1877) 
1.1697

>  <TPSA>  (1877) 
72.55

>  <POPULARITY>  (1877) 
11.3

>  <PROTECTED>  (1877) 
TRUE

>  <SMILES>  (1877) 
N[C@@H](c1(ccc(OC)cc1))CC(=O)O

>  <INCHIKEY>  (1877) 
NYTANCDDCQVQHG-SECBINFHSA-N

$$$$
bAla_3SPh_3CF3
     RDKit          2D

 16 16  0  0  0  0  0  0  0  0999 V2000
   -1.8339   -1.7993    0.0000 N   0  0  0  0  0  0  0  0  0  0  0  0
   -1.7301   -0.3029    0.0000 C   0  0  0  0  0  0  0  0  0  0  0  0
   -0.3823    0.3554    0.0000 C   0  0  0  0  0  0  0  0  0  0  0  0
   -0.2785    1.8518    0.0000 C   0  0  0  0  0  0  0  0  0  0  0  0
    1.0693    2.5102    0.0000 C   0  0  0  0  0  0  0  0  0  0  0  0
    2.3133    1.6721    0.0000 C   0  0  0  0  0  0  0  0  0  0  0  0
    2.2096    0.1757    0.0000 C   0  0  0  0  0  0  0  0  0  0  0  0
    0.8618   -0.4826    0.0000 C   0  0  0  0  0  0  0  0  0  0  0  0
    3.4536   -0.6624    0.0000 C   0  0  0  0  0  0  0  0  0  0  0  0
    4.6977   -1.5004    0.0000 F   0  0  0  0  0  0  0  0  0  0  0  0
    2.6155   -1.9064    0.0000 F   0  0  0  0  0  0  0  0  0  0  0  0
    4.2917    0.5817    0.0000 F   0  0  0  0  0  0  0  0  0  0  0  0
   -2.9741    0.5352    0.0000 C   0  0  0  0  0  0  0  0  0  0  0  0
   -4.3219   -0.1232    0.0000 C   0  0  0  0  0  0  0  0  0  0  0  0
   -4.4257   -1.6196    0.0000 O   0  0  0  0  0  0  0  0  0  0  0  0
   -5.5660    0.7149    0.0000 O   0  0  0  0  0  0  0  0  0  0  0  0
  2  1  1  6
  2  3  1  0
  3  4  1  0
  4  5  2  0
  5  6  1  0
  6  7  2  0
  7  8  1  0
  7  9  1  0
  9 10  1  0
  9 11  1  0
  9 12  1  0
  2 13  1  0
 13 14  1  0
 14 15  2  0
 14 16  1  0
  8  3  2  0
M  END
>  <rName>  (1878) 
bAla_3SPh_3CF3

>  <PQ_SYMBOL>  (1878) 
bAla_3SPh_3CF3

>  <FULL_NAME>  (1878) 
(R)-3-amino-3-(3-(trifluoromethyl)phenyl)propanoic acid

>  <IUPAC_CONDENSED>  (1878) 
bAla(3S-Ph(3-CF3))

>  <IUPAC>  (1878) 
(3R)-3-amino-3-(3-(trifluoromethyl)phenyl)propanoic acid

>  <TYPE>  (1878) 
Backbone

>  <CLASS>  (1878) 
beta

>  <ANALOG>  (1878) 
X

>  <MOL_WT>  (1878) 
233.18899999999994

>  <LOGP>  (1878) 
2.1799

>  <TPSA>  (1878) 
63.32000000000001

>  <POPULARITY>  (1878) 
8

>  <PROTECTED>  (1878) 
TRUE

>  <SMILES>  (1878) 
N[C@@H](c1(cccc(c1)C(F)(F)F))CC(=O)O

>  <INCHIKEY>  (1878) 
WZXBASRNQXYUIP-MRVPVSSYSA-N

$$$$
D-Asp_OEt
     RDKit          2D

 11 10  0  0  0  0  0  0  0  0999 V2000
   -1.4761   -1.7560    0.0000 N   0  0  0  0  0  0  0  0  0  0  0  0
   -1.5273   -0.2569    0.0000 C   0  0  0  0  0  0  0  0  0  0  0  0
   -0.2547    0.5371    0.0000 C   0  0  0  0  0  0  0  0  0  0  0  0
    1.0692   -0.1681    0.0000 C   0  0  0  0  0  0  0  0  0  0  0  0
    1.1205   -1.6672    0.0000 O   0  0  0  0  0  0  0  0  0  0  0  0
    2.3419    0.6259    0.0000 O   0  0  0  0  0  0  0  0  0  0  0  0
    3.6658   -0.0793    0.0000 C   0  0  0  0  0  0  0  0  0  0  0  0
    4.9384    0.7147    0.0000 C   0  0  0  0  0  0  0  0  0  0  0  0
   -2.8513    0.4482    0.0000 C   0  0  0  0  0  0  0  0  0  0  0  0
   -2.9025    1.9474    0.0000 O   0  0  0  0  0  0  0  0  0  0  0  0
   -4.1239   -0.3457    0.0000 O   0  0  0  0  0  0  0  0  0  0  0  0
  2  1  1  1
  2  3  1  0
  3  4  1  0
  4  5  2  0
  4  6  1  0
  6  7  1  0
  7  8  1  0
  2  9  1  0
  9 10  2  0
  9 11  1  0
M  END
>  <rName>  (1879) 
D-Asp_OEt

>  <PQ_SYMBOL>  (1879) 
D-Asp_OEt

>  <FULL_NAME>  (1879) 
(R)-2-amino-4-ethoxy-4-oxobutanoic acid

>  <IUPAC_CONDENSED>  (1879) 
D-Asp(OEt)

>  <IUPAC>  (1879) 
(2R)-2-amino-3-(ethoxycarbonyl)propanoic acid

>  <TYPE>  (1879) 
Backbone

>  <CLASS>  (1879) 
alpha

>  <ANALOG>  (1879) 
Asp

>  <MOL_WT>  (1879) 
161.15699999999998

>  <LOGP>  (1879) 
-0.6484999999999999

>  <TPSA>  (1879) 
89.62000000000002

>  <POPULARITY>  (1879) 
7

>  <PROTECTED>  (1879) 
TRUE

>  <SMILES>  (1879) 
N[C@H](CC(=O)OCC)C(=O)O

>  <INCHIKEY>  (1879) 
KALSWOYBXAHEKF-SCSAIBSYSA-N

$$$$
bAla_2SOH_3SPh_3F
     RDKit          2D

 14 14  0  0  0  0  0  0  0  0999 V2000
   -1.0270   -2.0473    0.0000 N   0  0  0  0  0  0  0  0  0  0  0  0
   -0.7622   -0.5709    0.0000 C   0  0  0  0  0  0  0  0  0  0  0  0
    0.6488   -0.0619    0.0000 C   0  0  0  0  0  0  0  0  0  0  0  0
    0.9135    1.4146    0.0000 C   0  0  0  0  0  0  0  0  0  0  0  0
    2.3245    1.9235    0.0000 C   0  0  0  0  0  0  0  0  0  0  0  0
    3.4708    0.9560    0.0000 C   0  0  0  0  0  0  0  0  0  0  0  0
    3.2061   -0.5204    0.0000 C   0  0  0  0  0  0  0  0  0  0  0  0
    4.3524   -1.4879    0.0000 F   0  0  0  0  0  0  0  0  0  0  0  0
    1.7951   -1.0294    0.0000 C   0  0  0  0  0  0  0  0  0  0  0  0
   -1.9085    0.3966    0.0000 C   0  0  0  0  0  0  0  0  0  0  0  0
   -1.6438    1.8731    0.0000 O   0  0  0  0  0  0  0  0  0  0  0  0
   -3.3195   -0.1124    0.0000 C   0  0  0  0  0  0  0  0  0  0  0  0
   -3.5842   -1.5888    0.0000 O   0  0  0  0  0  0  0  0  0  0  0  0
   -4.4658    0.8551    0.0000 O   0  0  0  0  0  0  0  0  0  0  0  0
  2  1  1  6
  2  3  1  0
  3  4  2  0
  4  5  1  0
  5  6  2  0
  6  7  1  0
  7  8  1  0
  7  9  2  0
  2 10  1  0
 10 11  1  1
 10 12  1  0
 12 13  2  0
 12 14  1  0
  9  3  1  0
M  END
>  <rName>  (1880) 
bAla_2SOH_3SPh_3F

>  <PQ_SYMBOL>  (1880) 
bAla_2SOH_3SPh_3F

>  <FULL_NAME>  (1880) 
(2S,3S)-3-amino-3-(3-fluorophenyl)-2-hydroxypropanoic acid

>  <IUPAC_CONDENSED>  (1880) 
bAla(2S-OH,3S-Ph(3-F))

>  <IUPAC>  (1880) 
(2S,3S)-3-amino-3-(3-fluorophenyl)-2-hydroxypropanoic acid

>  <TYPE>  (1880) 
Backbone

>  <CLASS>  (1880) 
beta

>  <ANALOG>  (1880) 
X

>  <MOL_WT>  (1880) 
199.18099999999998

>  <LOGP>  (1880) 
0.2710000000000002

>  <TPSA>  (1880) 
83.55

>  <POPULARITY>  (1880) 
3.8

>  <PROTECTED>  (1880) 
TRUE

>  <SMILES>  (1880) 
N[C@@H](c1(cccc(F)c1))[C@H](O)C(=O)O

>  <INCHIKEY>  (1880) 
XVPSWGNJNOSORO-YUMQZZPRSA-N

$$$$
bAla_2SPh
     RDKit          2D

 12 12  0  0  0  0  0  0  0  0999 V2000
    3.1463   -1.7206    0.0000 N   0  0  0  0  0  0  0  0  0  0  0  0
    1.6493   -1.6245    0.0000 C   0  0  0  0  0  0  0  0  0  0  0  0
    0.9841   -0.2801    0.0000 C   0  0  0  0  0  0  0  0  0  0  0  0
   -0.5128   -0.1840    0.0000 C   0  0  0  0  0  0  0  0  0  0  0  0
   -1.3445   -1.4324    0.0000 C   0  0  0  0  0  0  0  0  0  0  0  0
   -2.8414   -1.3363    0.0000 C   0  0  0  0  0  0  0  0  0  0  0  0
   -3.5067    0.0081    0.0000 C   0  0  0  0  0  0  0  0  0  0  0  0
   -2.6750    1.2564    0.0000 C   0  0  0  0  0  0  0  0  0  0  0  0
   -1.1781    1.1604    0.0000 C   0  0  0  0  0  0  0  0  0  0  0  0
    1.8157    0.9682    0.0000 C   0  0  0  0  0  0  0  0  0  0  0  0
    1.1505    2.3126    0.0000 O   0  0  0  0  0  0  0  0  0  0  0  0
    3.3127    0.8721    0.0000 O   0  0  0  0  0  0  0  0  0  0  0  0
  1  2  1  0
  3  2  1  6
  3  4  1  0
  4  5  2  0
  5  6  1  0
  6  7  2  0
  7  8  1  0
  8  9  2  0
  3 10  1  0
 10 11  2  0
 10 12  1  0
  9  4  1  0
M  END
>  <rName>  (1881) 
bAla_2SPh

>  <PQ_SYMBOL>  (1881) 
bAla_2SPh

>  <FULL_NAME>  (1881) 
(S)-3-amino-2-phenylpropanoic acid

>  <IUPAC_CONDENSED>  (1881) 
bAla(2S-Ph)

>  <IUPAC>  (1881) 
(2S)-3-amino-2-phenylpropanoic acid

>  <TYPE>  (1881) 
Backbone

>  <CLASS>  (1881) 
beta

>  <ANALOG>  (1881) 
X

>  <MOL_WT>  (1881) 
165.19199999999995

>  <LOGP>  (1881) 
0.8135000000000001

>  <TPSA>  (1881) 
63.32000000000001

>  <POPULARITY>  (1881) 
10.2

>  <PROTECTED>  (1881) 
TRUE

>  <SMILES>  (1881) 
NC[C@H](c1(ccccc1))C(=O)O

>  <INCHIKEY>  (1881) 
LRCYAJZPDFSJPQ-MRVPVSSYSA-N

$$$$
Phe_2Cl_4F
     RDKit          2D

 14 14  0  0  0  0  0  0  0  0999 V2000
   -1.7174    1.8436    0.0000 N   0  0  0  0  0  0  0  0  0  0  0  0
   -2.1036    0.3942    0.0000 C   0  0  0  0  0  0  0  0  0  0  0  0
   -1.0414   -0.6650    0.0000 C   0  0  0  0  0  0  0  0  0  0  0  0
    0.4069   -0.2747    0.0000 C   0  0  0  0  0  0  0  0  0  0  0  0
    0.7931    1.1747    0.0000 C   0  0  0  0  0  0  0  0  0  0  0  0
    2.2415    1.5649    0.0000 C   0  0  0  0  0  0  0  0  0  0  0  0
    3.3036    0.5057    0.0000 C   0  0  0  0  0  0  0  0  0  0  0  0
    4.7520    0.8960    0.0000 F   0  0  0  0  0  0  0  0  0  0  0  0
    2.9174   -0.9437    0.0000 C   0  0  0  0  0  0  0  0  0  0  0  0
    1.4691   -1.3339    0.0000 C   0  0  0  0  0  0  0  0  0  0  0  0
    1.0829   -2.7834    0.0000 Cl  0  0  0  0  0  0  0  0  0  0  0  0
   -3.5519    0.0039    0.0000 C   0  0  0  0  0  0  0  0  0  0  0  0
   -3.9381   -1.4455    0.0000 O   0  0  0  0  0  0  0  0  0  0  0  0
   -4.6140    1.0631    0.0000 O   0  0  0  0  0  0  0  0  0  0  0  0
  2  1  1  1
  2  3  1  0
  3  4  1  0
  4  5  1  0
  5  6  2  0
  6  7  1  0
  7  8  1  0
  7  9  2  0
  9 10  1  0
 10 11  1  0
  2 12  1  0
 12 13  2  0
 12 14  1  0
 10  4  2  0
M  END
>  <rName>  (1882) 
Phe_2Cl_4F

>  <PQ_SYMBOL>  (1882) 
Phe_2Cl_4F

>  <FULL_NAME>  (1882) 
(S)-2-amino-3-(2-chloro-4-fluorophenyl)propanoic acid

>  <IUPAC_CONDENSED>  (1882) 
Phe(2-Cl,4-F)

>  <IUPAC>  (1882) 
(2S)-2-amino-3-(2-chloro-4-fluorophenyl)propanoic acid

>  <TYPE>  (1882) 
Backbone

>  <CLASS>  (1882) 
alpha

>  <ANALOG>  (1882) 
Phe

>  <MOL_WT>  (1882) 
217.62699999999998

>  <LOGP>  (1882) 
1.4335000000000002

>  <TPSA>  (1882) 
63.32000000000001

>  <POPULARITY>  (1882) 
4.9

>  <PROTECTED>  (1882) 
TRUE

>  <SMILES>  (1882) 
N[C@@H](Cc1(ccc(F)cc1Cl))C(=O)O

>  <INCHIKEY>  (1882) 
BCUFAMXOPAUSIP-QMMMGPOBSA-N

$$$$
Phg_4Br
     RDKit          2D

 12 12  0  0  0  0  0  0  0  0999 V2000
   -2.1139   -2.0272    0.0000 N   0  0  0  0  0  0  0  0  0  0  0  0
   -1.6041   -0.6165    0.0000 C   0  0  0  0  0  0  0  0  0  0  0  0
   -0.1275   -0.3527    0.0000 C   0  0  0  0  0  0  0  0  0  0  0  0
    0.3824    1.0580    0.0000 C   0  0  0  0  0  0  0  0  0  0  0  0
    1.8590    1.3219    0.0000 C   0  0  0  0  0  0  0  0  0  0  0  0
    2.8258    0.1750    0.0000 C   0  0  0  0  0  0  0  0  0  0  0  0
    4.3024    0.4388    0.0000 Br  0  0  0  0  0  0  0  0  0  0  0  0
    2.3159   -1.2357    0.0000 C   0  0  0  0  0  0  0  0  0  0  0  0
    0.8393   -1.4995    0.0000 C   0  0  0  0  0  0  0  0  0  0  0  0
   -2.5709    0.5304    0.0000 C   0  0  0  0  0  0  0  0  0  0  0  0
   -2.0610    1.9411    0.0000 O   0  0  0  0  0  0  0  0  0  0  0  0
   -4.0475    0.2665    0.0000 O   0  0  0  0  0  0  0  0  0  0  0  0
  2  1  1  6
  2  3  1  0
  3  4  1  0
  4  5  2  0
  5  6  1  0
  6  7  1  0
  6  8  2  0
  8  9  1  0
  2 10  1  0
 10 11  2  0
 10 12  1  0
  9  3  2  0
M  END
>  <rName>  (1883) 
Phg_4Br

>  <PQ_SYMBOL>  (1883) 
Phg_4Br

>  <FULL_NAME>  (1883) 
(S)-2-amino-2-(4-bromophenyl)acetic acid

>  <IUPAC_CONDENSED>  (1883) 
Phg(4-Br)

>  <IUPAC>  (1883) 
(2S)-2-amino-2-(4-bromophenyl)acetic acid

>  <TYPE>  (1883) 
Backbone

>  <CLASS>  (1883) 
alpha

>  <ANALOG>  (1883) 
X

>  <MOL_WT>  (1883) 
230.06099999999998

>  <LOGP>  (1883) 
1.5335

>  <TPSA>  (1883) 
63.32000000000001

>  <POPULARITY>  (1883) 
5.2

>  <PROTECTED>  (1883) 
TRUE

>  <SMILES>  (1883) 
N[C@@H](c1(ccc(Br)cc1))C(=O)O

>  <INCHIKEY>  (1883) 
APLQICUORRMFHY-ZETCQYMHSA-N

$$$$
aMeS-Nip_3R
     RDKit          2D

 10 10  0  0  0  0  0  0  0  0999 V2000
    1.8956   -1.1355    0.0000 N   0  0  0  0  0  0  0  0  0  0  0  0
    0.3975   -1.0604    0.0000 C   0  0  0  0  0  0  0  0  0  0  0  0
   -0.4166   -2.3203    0.0000 C   0  0  0  0  0  0  0  0  0  0  0  0
   -0.2866    0.2745    0.0000 C   0  0  0  0  0  0  0  0  0  0  0  0
    0.5274    1.5344    0.0000 C   0  0  0  0  0  0  0  0  0  0  0  0
    2.0255    1.4594    0.0000 C   0  0  0  0  0  0  0  0  0  0  0  0
    2.7096    0.1244    0.0000 C   0  0  0  0  0  0  0  0  0  0  0  0
   -1.7848    0.3495    0.0000 C   0  0  0  0  0  0  0  0  0  0  0  0
   -2.5988   -0.9104    0.0000 O   0  0  0  0  0  0  0  0  0  0  0  0
   -2.4688    1.6844    0.0000 O   0  0  0  0  0  0  0  0  0  0  0  0
  1  2  1  0
  2  3  1  1
  2  4  1  0
  4  5  1  0
  5  6  1  0
  6  7  1  0
  4  8  1  6
  8  9  2  0
  8 10  1  0
  7  1  1  0
M  END
>  <rName>  (1884) 
aMeS-Nip_3R

>  <PQ_SYMBOL>  (1884) 
aMeS-Nip_3R

>  <FULL_NAME>  (1884) 
(2S,3R)-2-methylpiperidine-3-carboxylic acid

>  <IUPAC_CONDENSED>  (1884) 
aMe(S)-Nip(3R)

>  <IUPAC>  (1884) 
(2S,3R)-2-methylpiperidine-3-carboxylic acid

>  <TYPE>  (1884) 
Backbone

>  <CLASS>  (1884) 
beta

>  <ANALOG>  (1884) 
Pro

>  <MOL_WT>  (1884) 
143.186

>  <LOGP>  (1884) 
0.4591

>  <TPSA>  (1884) 
49.33

>  <POPULARITY>  (1884) 
6.8

>  <PROTECTED>  (1884) 
TRUE

>  <SMILES>  (1884) 
N1[C@@H](C)[C@@H](CCC1)C(=O)O

>  <INCHIKEY>  (1884) 
LAWPBIIDJCWFFN-NTSWFWBYSA-N

$$$$
aMeS-Nip_3S
     RDKit          2D

 10 10  0  0  0  0  0  0  0  0999 V2000
    1.8956   -1.1355    0.0000 N   0  0  0  0  0  0  0  0  0  0  0  0
    0.3975   -1.0604    0.0000 C   0  0  0  0  0  0  0  0  0  0  0  0
   -0.4166   -2.3203    0.0000 C   0  0  0  0  0  0  0  0  0  0  0  0
   -0.2866    0.2745    0.0000 C   0  0  0  0  0  0  0  0  0  0  0  0
    0.5274    1.5344    0.0000 C   0  0  0  0  0  0  0  0  0  0  0  0
    2.0255    1.4594    0.0000 C   0  0  0  0  0  0  0  0  0  0  0  0
    2.7096    0.1244    0.0000 C   0  0  0  0  0  0  0  0  0  0  0  0
   -1.7848    0.3495    0.0000 C   0  0  0  0  0  0  0  0  0  0  0  0
   -2.5988   -0.9104    0.0000 O   0  0  0  0  0  0  0  0  0  0  0  0
   -2.4688    1.6844    0.0000 O   0  0  0  0  0  0  0  0  0  0  0  0
  1  2  1  0
  2  3  1  1
  2  4  1  0
  4  5  1  0
  5  6  1  0
  6  7  1  0
  4  8  1  1
  8  9  2  0
  8 10  1  0
  7  1  1  0
M  END
>  <rName>  (1885) 
aMeS-Nip_3S

>  <PQ_SYMBOL>  (1885) 
aMeS-Nip_3S

>  <FULL_NAME>  (1885) 
(2S,3S)-2-methylpiperidine-3-carboxylic acid

>  <IUPAC_CONDENSED>  (1885) 
aMe(S)-Nip(3S)

>  <IUPAC>  (1885) 
(2S,3S)-2-methylpiperidine-3-carboxylic acid

>  <TYPE>  (1885) 
Backbone

>  <CLASS>  (1885) 
beta

>  <ANALOG>  (1885) 
Pro

>  <MOL_WT>  (1885) 
143.186

>  <LOGP>  (1885) 
0.4591

>  <TPSA>  (1885) 
49.33

>  <POPULARITY>  (1885) 
10.4

>  <PROTECTED>  (1885) 
TRUE

>  <SMILES>  (1885) 
N1[C@@H](C)[C@H](CCC1)C(=O)O

>  <INCHIKEY>  (1885) 
LAWPBIIDJCWFFN-WDSKDSINSA-N

$$$$
bAla_3RMob
     RDKit          2D

 15 15  0  0  0  0  0  0  0  0999 V2000
   -1.7431    1.1840    0.0000 N   0  0  0  0  0  0  0  0  0  0  0  0
   -1.9751   -0.2980    0.0000 C   0  0  0  0  0  0  0  0  0  0  0  0
   -0.8078   -1.2399    0.0000 C   0  0  0  0  0  0  0  0  0  0  0  0
    0.5916   -0.7000    0.0000 C   0  0  0  0  0  0  0  0  0  0  0  0
    0.8237    0.7820    0.0000 C   0  0  0  0  0  0  0  0  0  0  0  0
    2.2232    1.3219    0.0000 C   0  0  0  0  0  0  0  0  0  0  0  0
    3.3905    0.3800    0.0000 C   0  0  0  0  0  0  0  0  0  0  0  0
    4.7900    0.9199    0.0000 O   0  0  0  0  0  0  0  0  0  0  0  0
    5.9573   -0.0220    0.0000 C   0  0  0  0  0  0  0  0  0  0  0  0
    3.1584   -1.1020    0.0000 C   0  0  0  0  0  0  0  0  0  0  0  0
    1.7590   -1.6419    0.0000 C   0  0  0  0  0  0  0  0  0  0  0  0
   -3.3746   -0.8379    0.0000 C   0  0  0  0  0  0  0  0  0  0  0  0
   -4.5419    0.1040    0.0000 C   0  0  0  0  0  0  0  0  0  0  0  0
   -4.3098    1.5860    0.0000 O   0  0  0  0  0  0  0  0  0  0  0  0
   -5.9414   -0.4359    0.0000 O   0  0  0  0  0  0  0  0  0  0  0  0
  2  1  1  6
  2  3  1  0
  3  4  1  0
  4  5  1  0
  5  6  2  0
  6  7  1  0
  7  8  1  0
  8  9  1  0
  7 10  2  0
 10 11  1  0
  2 12  1  0
 12 13  1  0
 13 14  2  0
 13 15  1  0
 11  4  2  0
M  END
>  <rName>  (1886) 
bAla_3RMob

>  <PQ_SYMBOL>  (1886) 
bAla_3RMob

>  <FULL_NAME>  (1886) 
(R)-3-amino-4-(4-methoxyphenyl)butanoic acid

>  <IUPAC_CONDENSED>  (1886) 
bAla(3R-Mob)

>  <IUPAC>  (1886) 
(3R)-3-amino-4-(4-methoxyphenyl)butanoic acid

>  <TYPE>  (1886) 
Backbone

>  <CLASS>  (1886) 
beta

>  <ANALOG>  (1886) 
Tyr

>  <MOL_WT>  (1886) 
209.24499999999998

>  <LOGP>  (1886) 
1.0396999999999998

>  <TPSA>  (1886) 
72.55

>  <POPULARITY>  (1886) 
11

>  <PROTECTED>  (1886) 
TRUE

>  <SMILES>  (1886) 
N[C@H](Cc1(ccc(OC)cc1))CC(=O)O

>  <INCHIKEY>  (1886) 
GQFFGGKZIKRIFE-SECBINFHSA-N

$$$$
D-Abu_tetrazol5yl
     RDKit          2D

 12 12  0  0  0  0  0  0  0  0999 V2000
   -2.2999   -1.9362    0.0000 N   0  0  0  0  0  0  0  0  0  0  0  0
   -2.0700   -0.4539    0.0000 C   0  0  0  0  0  0  0  0  0  0  0  0
   -0.6714    0.0881    0.0000 C   0  0  0  0  0  0  0  0  0  0  0  0
    0.4974   -0.8521    0.0000 C   0  0  0  0  0  0  0  0  0  0  0  0
    1.8960   -0.3101    0.0000 C   0  0  0  0  0  0  0  0  0  0  0  0
    3.1566   -1.1230    0.0000 N   0  0  0  0  0  0  0  0  0  0  0  0
    4.3193   -0.1753    0.0000 N   0  0  0  0  0  0  0  0  0  0  0  0
    3.7773    1.2234    0.0000 N   0  0  0  0  0  0  0  0  0  0  0  0
    2.2796    1.1400    0.0000 N   0  0  0  0  0  0  0  0  0  0  0  0
   -3.2387    0.4863    0.0000 C   0  0  0  0  0  0  0  0  0  0  0  0
   -3.0088    1.9686    0.0000 O   0  0  0  0  0  0  0  0  0  0  0  0
   -4.6374   -0.0557    0.0000 O   0  0  0  0  0  0  0  0  0  0  0  0
  2  1  1  1
  2  3  1  0
  3  4  1  0
  4  5  1  0
  5  6  1  0
  6  7  2  0
  7  8  1  0
  8  9  1  0
  2 10  1  0
 10 11  2  0
 10 12  1  0
  9  5  2  0
M  END
>  <rName>  (1887) 
D-Abu_tetrazol5yl

>  <PQ_SYMBOL>  (1887) 
D-Abu_tetrazol5yl

>  <FULL_NAME>  (1887) 
(R)-2-amino-4-(2H-tetrazol-5-yl)butanoic acid

>  <IUPAC_CONDENSED>  (1887) 
D-Abu(tetrazol-5-yl)

>  <IUPAC>  (1887) 
(2R)-2-amino-4-(2H-tetrazol-5-yl)butanoic acid

>  <TYPE>  (1887) 
Backbone

>  <CLASS>  (1887) 
alpha

>  <ANALOG>  (1887) 
Phe

>  <MOL_WT>  (1887) 
171.16000000000003

>  <LOGP>  (1887) 
-1.4558000000000002

>  <TPSA>  (1887) 
117.78000000000002

>  <POPULARITY>  (1887) 
4.3

>  <PROTECTED>  (1887) 
TRUE

>  <SMILES>  (1887) 
N[C@H](CCc1(nn[nH]n1))C(=O)O

>  <INCHIKEY>  (1887) 
DXFDIQNGJWQJGA-GSVOUGTGSA-N

$$$$
4-amino-cHex-1-CO2H_1s_4s
     RDKit          2D

 10 10  0  0  0  0  0  0  0  0999 V2000
    3.7500    0.0000    0.0000 N   0  0  0  0  0  0  0  0  0  0  0  0
    2.2500   -0.0000    0.0000 C   0  0  0  0  0  0  0  0  0  0  0  0
    1.5000   -1.2990    0.0000 C   0  0  0  0  0  0  0  0  0  0  0  0
   -0.0000   -1.2990    0.0000 C   0  0  0  0  0  0  0  0  0  0  0  0
   -0.7500    0.0000    0.0000 C   0  0  0  0  0  0  0  0  0  0  0  0
    0.0000    1.2990    0.0000 C   0  0  0  0  0  0  0  0  0  0  0  0
    1.5000    1.2990    0.0000 C   0  0  0  0  0  0  0  0  0  0  0  0
   -2.2500    0.0000    0.0000 C   0  0  0  0  0  0  0  0  0  0  0  0
   -3.0000   -1.2990    0.0000 O   0  0  0  0  0  0  0  0  0  0  0  0
   -3.0000    1.2990    0.0000 O   0  0  0  0  0  0  0  0  0  0  0  0
  2  1  1  1
  2  3  1  0
  3  4  1  0
  4  5  1  0
  5  6  1  0
  6  7  1  0
  5  8  1  1
  8  9  2  0
  8 10  1  0
  7  2  1  0
M  END
>  <rName>  (1888) 
4-amino-cHex-1-CO2H_1s_4s

>  <PQ_SYMBOL>  (1888) 
4-amino-cHex-1-CO2H_1s_4s

>  <FULL_NAME>  (1888) 
(1s,4s)-4-aminocyclohexane-1-carboxylic acid

>  <IUPAC_CONDENSED>  (1888) 
4-amino-cHex-1-CO2H(1s,4s)

>  <IUPAC>  (1888) 
4-aminocyclohexane-1-carboxylic acid

>  <TYPE>  (1888) 
Backbone

>  <CLASS>  (1888) 
delta

>  <ANALOG>  (1888) 
Ala

>  <MOL_WT>  (1888) 
143.186

>  <LOGP>  (1888) 
0.5884999999999998

>  <TPSA>  (1888) 
63.32000000000001

>  <POPULARITY>  (1888) 
10.4

>  <PROTECTED>  (1888) 
TRUE

>  <SMILES>  (1888) 
N[C@H]1CC[C@H](CC1)C(=O)O

>  <INCHIKEY>  (1888) 
DRNGLYHKYPNTEA-OLQVQODUSA-N

$$$$
Met_NH2
     RDKit          2D

 10  9  0  0  0  0  0  0  0  0999 V2000
   -1.4166   -1.8843    0.0000 N   0  0  0  0  0  0  0  0  0  0  0  0
   -1.4265   -0.3844    0.0000 C   0  0  0  0  0  0  0  0  0  0  0  0
   -0.1324    0.3741    0.0000 C   0  0  0  0  0  0  0  0  0  0  0  0
    1.1716   -0.3673    0.0000 C   0  0  0  0  0  0  0  0  0  0  0  0
    2.4657    0.3912    0.0000 S   0  0  0  0  0  0  0  0  0  0  0  0
    3.7696   -0.3503    0.0000 C   0  0  0  0  0  0  0  0  0  0  0  0
    5.0637    0.4082    0.0000 N   0  0  0  0  0  0  0  0  0  0  0  0
   -2.7304    0.3571    0.0000 C   0  0  0  0  0  0  0  0  0  0  0  0
   -2.7402    1.8571    0.0000 O   0  0  0  0  0  0  0  0  0  0  0  0
   -4.0245   -0.4014    0.0000 O   0  0  0  0  0  0  0  0  0  0  0  0
  2  1  1  6
  2  3  1  0
  3  4  1  0
  4  5  1  0
  5  6  1  0
  6  7  1  0
  2  8  1  0
  8  9  2  0
  8 10  1  0
M  END
>  <rName>  (1889) 
Met_NH2

>  <PQ_SYMBOL>  (1889) 
Met_NH2

>  <FULL_NAME>  (1889) 
S-(aminomethyl)-L-homocysteine

>  <IUPAC_CONDENSED>  (1889) 
Met(NH2)

>  <IUPAC>  (1889) 
(2S)-2-amino-4-(aminomethylsulfanyl)butanoic acid

>  <TYPE>  (1889) 
Backbone

>  <CLASS>  (1889) 
alpha

>  <ANALOG>  (1889) 
Met

>  <MOL_WT>  (1889) 
164.23000000000002

>  <LOGP>  (1889) 
-0.5622000000000003

>  <TPSA>  (1889) 
89.34

>  <POPULARITY>  (1889) 
6.9

>  <PROTECTED>  (1889) 
TRUE

>  <SMILES>  (1889) 
N[C@@H](CCSCN)C(=O)O

>  <INCHIKEY>  (1889) 
KYWBJGMQDJTVSN-BYPYZUCNSA-N

$$$$
bAla_3SEtNH2
     RDKit          2D

  9  8  0  0  0  0  0  0  0  0999 V2000
   -0.1633   -1.5188    0.0000 N   0  0  0  0  0  0  0  0  0  0  0  0
   -0.2877   -0.0239    0.0000 C   0  0  0  0  0  0  0  0  0  0  0  0
   -1.6444    0.6157    0.0000 C   0  0  0  0  0  0  0  0  0  0  0  0
   -2.8768   -0.2394    0.0000 C   0  0  0  0  0  0  0  0  0  0  0  0
   -4.2336    0.4002    0.0000 N   0  0  0  0  0  0  0  0  0  0  0  0
    0.9447    0.8312    0.0000 C   0  0  0  0  0  0  0  0  0  0  0  0
    2.3014    0.1915    0.0000 C   0  0  0  0  0  0  0  0  0  0  0  0
    2.4259   -1.3033    0.0000 O   0  0  0  0  0  0  0  0  0  0  0  0
    3.5338    1.0467    0.0000 O   0  0  0  0  0  0  0  0  0  0  0  0
  2  1  1  1
  2  3  1  0
  3  4  1  0
  4  5  1  0
  2  6  1  0
  6  7  1  0
  7  8  2  0
  7  9  1  0
M  END
>  <rName>  (1890) 
bAla_3SEtNH2

>  <PQ_SYMBOL>  (1890) 
bAla_3SEtNH2

>  <FULL_NAME>  (1890) 
(S)-3,5-diaminopentanoic acid

>  <IUPAC_CONDENSED>  (1890) 
bAla(3S-EtNH2)

>  <IUPAC>  (1890) 
(3S)-3,5-diaminopentanoic acid

>  <TYPE>  (1890) 
Backbone

>  <CLASS>  (1890) 
beta

>  <ANALOG>  (1890) 
X

>  <MOL_WT>  (1890) 
132.163

>  <LOGP>  (1890) 
-0.8628

>  <TPSA>  (1890) 
89.34

>  <POPULARITY>  (1890) 
8.1

>  <PROTECTED>  (1890) 
TRUE

>  <SMILES>  (1890) 
N[C@@H](CCN)CC(=O)O

>  <INCHIKEY>  (1890) 
UOYNFMVJDVKLNJ-BYPYZUCNSA-N

$$$$
bAla_3REtNH2
     RDKit          2D

  9  8  0  0  0  0  0  0  0  0999 V2000
   -0.1633   -1.5188    0.0000 N   0  0  0  0  0  0  0  0  0  0  0  0
   -0.2877   -0.0239    0.0000 C   0  0  0  0  0  0  0  0  0  0  0  0
   -1.6444    0.6157    0.0000 C   0  0  0  0  0  0  0  0  0  0  0  0
   -2.8768   -0.2394    0.0000 C   0  0  0  0  0  0  0  0  0  0  0  0
   -4.2336    0.4002    0.0000 N   0  0  0  0  0  0  0  0  0  0  0  0
    0.9447    0.8312    0.0000 C   0  0  0  0  0  0  0  0  0  0  0  0
    2.3014    0.1915    0.0000 C   0  0  0  0  0  0  0  0  0  0  0  0
    2.4259   -1.3033    0.0000 O   0  0  0  0  0  0  0  0  0  0  0  0
    3.5338    1.0467    0.0000 O   0  0  0  0  0  0  0  0  0  0  0  0
  2  1  1  6
  2  3  1  0
  3  4  1  0
  4  5  1  0
  2  6  1  0
  6  7  1  0
  7  8  2  0
  7  9  1  0
M  END
>  <rName>  (1891) 
bAla_3REtNH2

>  <PQ_SYMBOL>  (1891) 
bAla_3REtNH2

>  <FULL_NAME>  (1891) 
(R)-3,5-diaminopentanoic acid

>  <IUPAC_CONDENSED>  (1891) 
bAla(3R-EtNH2)

>  <IUPAC>  (1891) 
(3R)-3,5-diaminopentanoic acid

>  <TYPE>  (1891) 
Backbone

>  <CLASS>  (1891) 
beta

>  <ANALOG>  (1891) 
X

>  <MOL_WT>  (1891) 
132.163

>  <LOGP>  (1891) 
-0.8628

>  <TPSA>  (1891) 
89.34

>  <POPULARITY>  (1891) 
12.2

>  <PROTECTED>  (1891) 
TRUE

>  <SMILES>  (1891) 
N[C@H](CCN)CC(=O)O

>  <INCHIKEY>  (1891) 
UOYNFMVJDVKLNJ-SCSAIBSYSA-N

$$$$
D-Tyr_35diBr
     RDKit          2D

 15 15  0  0  0  0  0  0  0  0999 V2000
   -2.0609    1.6226    0.0000 N   0  0  0  0  0  0  0  0  0  0  0  0
   -2.4694    0.1793    0.0000 C   0  0  0  0  0  0  0  0  0  0  0  0
   -1.4237   -0.8961    0.0000 C   0  0  0  0  0  0  0  0  0  0  0  0
    0.0305   -0.5283    0.0000 C   0  0  0  0  0  0  0  0  0  0  0  0
    0.4390    0.9150    0.0000 C   0  0  0  0  0  0  0  0  0  0  0  0
    1.8932    1.2829    0.0000 C   0  0  0  0  0  0  0  0  0  0  0  0
    2.3017    2.7262    0.0000 Br  0  0  0  0  0  0  0  0  0  0  0  0
    2.9389    0.2075    0.0000 C   0  0  0  0  0  0  0  0  0  0  0  0
    4.3931    0.5753    0.0000 O   0  0  0  0  0  0  0  0  0  0  0  0
    2.5304   -1.2358    0.0000 C   0  0  0  0  0  0  0  0  0  0  0  0
    3.5760   -2.3113    0.0000 Br  0  0  0  0  0  0  0  0  0  0  0  0
    1.0762   -1.6037    0.0000 C   0  0  0  0  0  0  0  0  0  0  0  0
   -3.9236   -0.1886    0.0000 C   0  0  0  0  0  0  0  0  0  0  0  0
   -4.3321   -1.6319    0.0000 O   0  0  0  0  0  0  0  0  0  0  0  0
   -4.9693    0.8868    0.0000 O   0  0  0  0  0  0  0  0  0  0  0  0
  2  1  1  6
  2  3  1  0
  3  4  1  0
  4  5  2  0
  5  6  1  0
  6  7  1  0
  6  8  2  0
  8  9  1  0
  8 10  1  0
 10 11  1  0
 10 12  2  0
  2 13  1  0
 13 14  2  0
 13 15  1  0
 12  4  1  0
M  END
>  <rName>  (1892) 
D-Tyr_35diBr

>  <PQ_SYMBOL>  (1892) 
D-Tyr_35diBr

>  <FULL_NAME>  (1892) 
(R)-2-amino-3-(3,5-dibromo-4-hydroxyphenyl)propanoic acid

>  <IUPAC_CONDENSED>  (1892) 
D-Tyr(3,5-diBr)

>  <IUPAC>  (1892) 
(2R)-2-amino-3-(3,5-dibromo-4-hydroxyphenyl)propanoic acid

>  <TYPE>  (1892) 
Backbone

>  <CLASS>  (1892) 
alpha

>  <ANALOG>  (1892) 
Tyr

>  <MOL_WT>  (1892) 
338.98300000000006

>  <LOGP>  (1892) 
1.8716000000000002

>  <TPSA>  (1892) 
83.55

>  <POPULARITY>  (1892) 
7.1

>  <PROTECTED>  (1892) 
TRUE

>  <SMILES>  (1892) 
N[C@H](Cc1(cc(Br)c(O)c(Br)c1))C(=O)O

>  <INCHIKEY>  (1892) 
COESHZUDRKCEPA-SSDOTTSWSA-N

$$$$
D-Phe_4MeSO3H
     RDKit          2D

 17 17  0  0  0  0  0  0  0  0999 V2000
   -3.1457    1.6694    0.0000 N   0  0  0  0  0  0  0  0  0  0  0  0
   -3.4800    0.2071    0.0000 C   0  0  0  0  0  0  0  0  0  0  0  0
   -2.3807   -0.8135    0.0000 C   0  0  0  0  0  0  0  0  0  0  0  0
   -0.9472   -0.3718    0.0000 C   0  0  0  0  0  0  0  0  0  0  0  0
   -0.6130    1.0905    0.0000 C   0  0  0  0  0  0  0  0  0  0  0  0
    0.8205    1.5322    0.0000 C   0  0  0  0  0  0  0  0  0  0  0  0
    1.9198    0.5116    0.0000 C   0  0  0  0  0  0  0  0  0  0  0  0
    1.5855   -0.9507    0.0000 C   0  0  0  0  0  0  0  0  0  0  0  0
    0.1520   -1.3924    0.0000 C   0  0  0  0  0  0  0  0  0  0  0  0
    3.3533    0.9532    0.0000 C   0  0  0  0  0  0  0  0  0  0  0  0
    4.4525   -0.0674    0.0000 S   0  0  0  0  0  0  0  0  0  0  0  0
    5.4731    1.0319    0.0000 O   0  0  0  0  0  0  0  0  0  0  0  0
    3.4319   -1.1666    0.0000 O   0  0  0  0  0  0  0  0  0  0  0  0
    5.5518   -1.0880    0.0000 O   0  0  0  0  0  0  0  0  0  0  0  0
   -4.9135   -0.2346    0.0000 C   0  0  0  0  0  0  0  0  0  0  0  0
   -5.2477   -1.6969    0.0000 O   0  0  0  0  0  0  0  0  0  0  0  0
   -6.0127    0.7860    0.0000 O   0  0  0  0  0  0  0  0  0  0  0  0
  2  1  1  6
  2  3  1  0
  3  4  1  0
  4  5  1  0
  5  6  2  0
  6  7  1  0
  7  8  2  0
  8  9  1  0
  7 10  1  0
 10 11  1  0
 11 12  2  0
 11 13  2  0
 11 14  1  0
  2 15  1  0
 15 16  2  0
 15 17  1  0
  9  4  2  0
M  END
>  <rName>  (1893) 
D-Phe_4MeSO3H

>  <PQ_SYMBOL>  (1893) 
D-Phe_4MeSO3H

>  <FULL_NAME>  (1893) 
(R)-2-amino-3-(4-(sulfomethyl)phenyl)propanoic acid

>  <IUPAC_CONDENSED>  (1893) 
D-Phe(4-MeSO3H)

>  <IUPAC>  (1893) 
(2R)-2-amino-3-(4-(sulfomethyl)phenyl)propanoic acid

>  <TYPE>  (1893) 
Backbone

>  <CLASS>  (1893) 
alpha

>  <ANALOG>  (1893) 
Phe

>  <MOL_WT>  (1893) 
259.28299999999996

>  <LOGP>  (1893) 
0.028800000000000048

>  <TPSA>  (1893) 
117.69000000000001

>  <POPULARITY>  (1893) 
3.7

>  <PROTECTED>  (1893) 
TRUE

>  <SMILES>  (1893) 
N[C@H](Cc1(ccc(cc1)CS(=O)(=O)O))C(=O)O

>  <INCHIKEY>  (1893) 
ICCZHONAEMZRSG-SECBINFHSA-N

$$$$
D-aMeNle_hex5enyl
     RDKit          2D

 16 15  0  0  0  0  0  0  0  0999 V2000
   -3.4499    1.8157    0.0000 N   0  0  0  0  0  0  0  0  0  0  0  0
   -4.2317    0.5355    0.0000 C   0  0  0  0  0  0  0  0  0  0  0  0
   -5.5119    1.3173    0.0000 C   0  0  0  0  0  0  0  0  0  0  0  0
   -2.9516   -0.2463    0.0000 C   0  0  0  0  0  0  0  0  0  0  0  0
   -1.6344    0.4715    0.0000 C   0  0  0  0  0  0  0  0  0  0  0  0
   -0.3543   -0.3103    0.0000 C   0  0  0  0  0  0  0  0  0  0  0  0
    0.9629    0.4075    0.0000 C   0  0  0  0  0  0  0  0  0  0  0  0
    2.2430   -0.3743    0.0000 C   0  0  0  0  0  0  0  0  0  0  0  0
    3.5601    0.3435    0.0000 C   0  0  0  0  0  0  0  0  0  0  0  0
    4.8403   -0.4383    0.0000 C   0  0  0  0  0  0  0  0  0  0  0  0
    6.1574    0.2794    0.0000 C   0  0  0  0  0  0  0  0  0  0  0  0
    7.4376   -0.5023    0.0000 C   0  0  0  0  0  0  0  0  0  0  0  0
    8.7547    0.2154    0.0000 C   0  0  0  0  0  0  0  0  0  0  0  0
   -5.0135   -0.7447    0.0000 C   0  0  0  0  0  0  0  0  0  0  0  0
   -6.5130   -0.7077    0.0000 O   0  0  0  0  0  0  0  0  0  0  0  0
   -4.2957   -2.0618    0.0000 O   0  0  0  0  0  0  0  0  0  0  0  0
  1  2  1  0
  2  3  1  1
  2  4  1  0
  4  5  1  0
  5  6  1  0
  6  7  1  0
  7  8  1  0
  8  9  1  0
  9 10  1  0
 10 11  1  0
 11 12  1  0
 12 13  2  0
  2 14  1  0
 14 15  2  0
 14 16  1  0
M  END
>  <rName>  (1894) 
D-aMeNle_hex5enyl

>  <PQ_SYMBOL>  (1894) 
D-aMeNle_hex5enyl

>  <FULL_NAME>  (1894) 
(R)-2-amino-2-methyldodec-11-enoic acid

>  <IUPAC_CONDENSED>  (1894) 
D-aMeNle(hex-5-enyl)

>  <IUPAC>  (1894) 
(2R)-2-amino-2-methyldodec-11-enoic acid

>  <TYPE>  (1894) 
Backbone

>  <CLASS>  (1894) 
alpha

>  <ANALOG>  (1894) 
X

>  <MOL_WT>  (1894) 
227.34799999999998

>  <LOGP>  (1894) 
3.095200000000001

>  <TPSA>  (1894) 
63.32000000000001

>  <POPULARITY>  (1894) 
5.1

>  <PROTECTED>  (1894) 
TRUE

>  <SMILES>  (1894) 
N[C@](C)(CCCCCCCCC=C)C(=O)O

>  <INCHIKEY>  (1894) 
NIZDOMFZGSADGL-CYBMUJFWSA-N

$$$$
Ser_iPr
     RDKit          2D

 10  9  0  0  0  0  0  0  0  0999 V2000
    1.2717    1.9622    0.0000 N   0  0  0  0  0  0  0  0  0  0  0  0
    1.1946    0.4642    0.0000 C   0  0  0  0  0  0  0  0  0  0  0  0
   -0.1413   -0.2180    0.0000 C   0  0  0  0  0  0  0  0  0  0  0  0
   -1.4001    0.5978    0.0000 O   0  0  0  0  0  0  0  0  0  0  0  0
   -2.7359   -0.0845    0.0000 C   0  0  0  0  0  0  0  0  0  0  0  0
   -3.9947    0.7313    0.0000 C   0  0  0  0  0  0  0  0  0  0  0  0
   -2.8131   -1.5825    0.0000 C   0  0  0  0  0  0  0  0  0  0  0  0
    2.4533   -0.3516    0.0000 C   0  0  0  0  0  0  0  0  0  0  0  0
    2.3762   -1.8496    0.0000 O   0  0  0  0  0  0  0  0  0  0  0  0
    3.7892    0.3306    0.0000 O   0  0  0  0  0  0  0  0  0  0  0  0
  2  1  1  6
  2  3  1  0
  3  4  1  0
  4  5  1  0
  5  6  1  0
  5  7  1  0
  2  8  1  0
  8  9  2  0
  8 10  1  0
M  END
>  <rName>  (1895) 
Ser_iPr

>  <PQ_SYMBOL>  (1895) 
Ser_iPr

>  <FULL_NAME>  (1895) 
O-isopropyl-L-serine

>  <IUPAC_CONDENSED>  (1895) 
Ser(iPr)

>  <IUPAC>  (1895) 
(2S)-2-amino-3-isopropoxypropanoic acid

>  <TYPE>  (1895) 
Backbone

>  <CLASS>  (1895) 
alpha

>  <ANALOG>  (1895) 
Ser

>  <MOL_WT>  (1895) 
147.17399999999998

>  <LOGP>  (1895) 
-0.17670000000000036

>  <TPSA>  (1895) 
72.55

>  <POPULARITY>  (1895) 
8.7

>  <PROTECTED>  (1895) 
TRUE

>  <SMILES>  (1895) 
N[C@@H](COC(C)C)C(=O)O

>  <INCHIKEY>  (1895) 
RWPNRIDPFQODSJ-YFKPBYRVSA-N

$$$$
Asp-AMC
     RDKit          2D

 21 22  0  0  0  0  0  0  0  0999 V2000
   -4.0812   -1.8355    0.0000 N   0  0  0  0  0  0  0  0  0  0  0  0
   -3.8273   -0.3571    0.0000 C   0  0  0  0  0  0  0  0  0  0  0  0
   -2.4200    0.1621    0.0000 C   0  0  0  0  0  0  0  0  0  0  0  0
   -2.1660    1.6404    0.0000 O   0  0  0  0  0  0  0  0  0  0  0  0
   -1.2667   -0.7970    0.0000 N   0  0  0  0  0  0  0  0  0  0  0  0
    0.1406   -0.2778    0.0000 C   0  0  0  0  0  0  0  0  0  0  0  0
    0.3945    1.2005    0.0000 C   0  0  0  0  0  0  0  0  0  0  0  0
    1.8018    1.7197    0.0000 C   0  0  0  0  0  0  0  0  0  0  0  0
    2.9551    0.7606    0.0000 C   0  0  0  0  0  0  0  0  0  0  0  0
    4.3624    1.2798    0.0000 C   0  0  0  0  0  0  0  0  0  0  0  0
    4.6164    2.7582    0.0000 C   0  0  0  0  0  0  0  0  0  0  0  0
    5.5157    0.3207    0.0000 C   0  0  0  0  0  0  0  0  0  0  0  0
    5.2617   -1.1576    0.0000 C   0  0  0  0  0  0  0  0  0  0  0  0
    6.4150   -2.1168    0.0000 O   0  0  0  0  0  0  0  0  0  0  0  0
    3.8544   -1.6768    0.0000 O   0  0  0  0  0  0  0  0  0  0  0  0
    2.7011   -0.7177    0.0000 C   0  0  0  0  0  0  0  0  0  0  0  0
    1.2939   -1.2369    0.0000 C   0  0  0  0  0  0  0  0  0  0  0  0
   -4.9806    0.6020    0.0000 C   0  0  0  0  0  0  0  0  0  0  0  0
   -6.3878    0.0828    0.0000 C   0  0  0  0  0  0  0  0  0  0  0  0
   -6.6418   -1.3956    0.0000 O   0  0  0  0  0  0  0  0  0  0  0  0
   -7.5411    1.0419    0.0000 O   0  0  0  0  0  0  0  0  0  0  0  0
  2  1  1  1
  2  3  1  0
  3  4  2  0
  3  5  1  0
  5  6  1  0
  6  7  1  0
  7  8  2  0
  8  9  1  0
  9 10  1  0
 10 11  1  0
 10 12  2  0
 12 13  1  0
 13 14  2  0
 13 15  1  0
 15 16  1  0
 16 17  1  0
  2 18  1  0
 18 19  1  0
 19 20  2  0
 19 21  1  0
 16  9  2  0
 17  6  2  0
M  END
>  <rName>  (1896) 
Asp-AMC

>  <PQ_SYMBOL>  (1896) 
Asp-AMC

>  <FULL_NAME>  (1896) 
(S)-3-amino-4-((4-methyl-2-oxo-2H-chromen-7-yl)amino)-4-oxobutanoic acid

>  <IUPAC_CONDENSED>  (1896) 
Asp-AMC

>  <IUPAC>  (1896) 
(3S)-3-amino-3-((5-methyl-3-oxo-2-oxabicyclo[4.4.0]deca-1(10),4,6,8-tetraen-9-yl)carbamoyl)propanoic acid

>  <TYPE>  (1896) 
Backbone

>  <CLASS>  (1896) 
beta

>  <ANALOG>  (1896) 
X

>  <MOL_WT>  (1896) 
290.275

>  <LOGP>  (1896) 
0.84192

>  <TPSA>  (1896) 
122.63000000000001

>  <POPULARITY>  (1896) 
3.5

>  <PROTECTED>  (1896) 
TRUE

>  <SMILES>  (1896) 
N[C@H](C(=O)Nc2(ccc1(c(C)cc(=O)oc1c2)))CC(=O)O

>  <INCHIKEY>  (1896) 
AAGPGZSFBVEQMU-JTQLQIEISA-N

$$$$
Pro-Gly
     RDKit          2D

 12 12  0  0  0  0  0  0  0  0999 V2000
   -0.8910    0.0678    0.0000 N   0  0  0  0  0  0  0  0  0  0  0  0
    0.3322   -0.8004    0.0000 C   0  0  0  0  0  0  0  0  0  0  0  0
    0.1918   -2.2938    0.0000 O   0  0  0  0  0  0  0  0  0  0  0  0
    1.6957   -0.1752    0.0000 C   0  0  0  0  0  0  0  0  0  0  0  0
    3.0029   -0.9109    0.0000 C   0  0  0  0  0  0  0  0  0  0  0  0
    4.1065    0.1051    0.0000 C   0  0  0  0  0  0  0  0  0  0  0  0
    3.4813    1.4686    0.0000 C   0  0  0  0  0  0  0  0  0  0  0  0
    1.9913    1.2953    0.0000 N   0  0  0  0  0  0  0  0  0  0  0  0
   -2.2545   -0.5574    0.0000 C   0  0  0  0  0  0  0  0  0  0  0  0
   -3.4777    0.3109    0.0000 C   0  0  0  0  0  0  0  0  0  0  0  0
   -3.3374    1.8043    0.0000 O   0  0  0  0  0  0  0  0  0  0  0  0
   -4.8412   -0.3143    0.0000 O   0  0  0  0  0  0  0  0  0  0  0  0
  1  2  1  0
  2  3  2  0
  4  2  1  1
  4  5  1  0
  5  6  1  0
  6  7  1  0
  7  8  1  0
  1  9  1  0
  9 10  1  0
 10 11  2  0
 10 12  1  0
  8  4  1  0
M  END
>  <rName>  (1897) 
Pro-Gly

>  <PQ_SYMBOL>  (1897) 
Pro-Gly

>  <FULL_NAME>  (1897) 
(S)-prolylglycine

>  <IUPAC_CONDENSED>  (1897) 
Pro-Gly

>  <IUPAC>  (1897) 
2-((2S)-pyrrolidin-2-ylcarbonylamino)acetic acid

>  <TYPE>  (1897) 
Backbone

>  <CLASS>  (1897) 
alpha

>  <ANALOG>  (1897) 
Gly

>  <MOL_WT>  (1897) 
172.18400000000003

>  <LOGP>  (1897) 
-1.0607999999999995

>  <TPSA>  (1897) 
78.43

>  <POPULARITY>  (1897) 
17.3

>  <PROTECTED>  (1897) 
TRUE

>  <SMILES>  (1897) 
N(C(=O)[C@@H]1(CCCN1))CC(=O)O

>  <INCHIKEY>  (1897) 
RNKSNIBMTUYWSH-YFKPBYRVSA-N

$$$$
bAla_3RBn_34diF
     RDKit          2D

 15 15  0  0  0  0  0  0  0  0999 V2000
   -1.7108    1.2179    0.0000 N   0  0  0  0  0  0  0  0  0  0  0  0
   -1.8532   -0.2753    0.0000 C   0  0  0  0  0  0  0  0  0  0  0  0
   -0.6312   -1.1453    0.0000 C   0  0  0  0  0  0  0  0  0  0  0  0
    0.7332   -0.5220    0.0000 C   0  0  0  0  0  0  0  0  0  0  0  0
    0.8756    0.9713    0.0000 C   0  0  0  0  0  0  0  0  0  0  0  0
    2.2399    1.5946    0.0000 C   0  0  0  0  0  0  0  0  0  0  0  0
    3.4619    0.7247    0.0000 C   0  0  0  0  0  0  0  0  0  0  0  0
    4.8263    1.3480    0.0000 F   0  0  0  0  0  0  0  0  0  0  0  0
    3.3195   -0.7686    0.0000 C   0  0  0  0  0  0  0  0  0  0  0  0
    4.5415   -1.6385    0.0000 F   0  0  0  0  0  0  0  0  0  0  0  0
    1.9552   -1.3919    0.0000 C   0  0  0  0  0  0  0  0  0  0  0  0
   -3.2175   -0.8987    0.0000 C   0  0  0  0  0  0  0  0  0  0  0  0
   -4.4395   -0.0287    0.0000 C   0  0  0  0  0  0  0  0  0  0  0  0
   -4.2971    1.4645    0.0000 O   0  0  0  0  0  0  0  0  0  0  0  0
   -5.8039   -0.6520    0.0000 O   0  0  0  0  0  0  0  0  0  0  0  0
  2  1  1  6
  2  3  1  0
  3  4  1  0
  4  5  1  0
  5  6  2  0
  6  7  1  0
  7  8  1  0
  7  9  2  0
  9 10  1  0
  9 11  1  0
  2 12  1  0
 12 13  1  0
 13 14  2  0
 13 15  1  0
 11  4  2  0
M  END
>  <rName>  (1898) 
bAla_3RBn_34diF

>  <PQ_SYMBOL>  (1898) 
bAla_3RBn_34diF

>  <FULL_NAME>  (1898) 
(R)-3-amino-4-(3,4-difluorophenyl)butanoic acid

>  <IUPAC_CONDENSED>  (1898) 
bAla(3R-Bn(3,4-diF))

>  <IUPAC>  (1898) 
(3R)-3-amino-4-(3,4-difluorophenyl)butanoic acid

>  <TYPE>  (1898) 
Backbone

>  <CLASS>  (1898) 
beta

>  <ANALOG>  (1898) 
Phe

>  <MOL_WT>  (1898) 
215.19899999999996

>  <LOGP>  (1898) 
1.3093000000000001

>  <TPSA>  (1898) 
63.32000000000001

>  <POPULARITY>  (1898) 
9.9

>  <PROTECTED>  (1898) 
TRUE

>  <SMILES>  (1898) 
N[C@H](Cc1(ccc(F)c(F)c1))CC(=O)O

>  <INCHIKEY>  (1898) 
LYHJWUKHUZUWDC-SSDOTTSWSA-N

$$$$
bAla_3Rpyrid3ylmethyl
     RDKit          2D

 13 13  0  0  0  0  0  0  0  0999 V2000
   -0.9767    1.2065    0.0000 N   0  0  0  0  0  0  0  0  0  0  0  0
   -1.1358   -0.2850    0.0000 C   0  0  0  0  0  0  0  0  0  0  0  0
    0.0764   -1.1685    0.0000 C   0  0  0  0  0  0  0  0  0  0  0  0
    1.4476   -0.5605    0.0000 C   0  0  0  0  0  0  0  0  0  0  0  0
    1.6067    0.9310    0.0000 C   0  0  0  0  0  0  0  0  0  0  0  0
    2.9779    1.5390    0.0000 C   0  0  0  0  0  0  0  0  0  0  0  0
    4.1901    0.6555    0.0000 C   0  0  0  0  0  0  0  0  0  0  0  0
    4.0310   -0.8361    0.0000 N   0  0  0  0  0  0  0  0  0  0  0  0
    2.6598   -1.4441    0.0000 C   0  0  0  0  0  0  0  0  0  0  0  0
   -2.5071   -0.8930    0.0000 C   0  0  0  0  0  0  0  0  0  0  0  0
   -3.7192   -0.0095    0.0000 C   0  0  0  0  0  0  0  0  0  0  0  0
   -3.5602    1.4821    0.0000 O   0  0  0  0  0  0  0  0  0  0  0  0
   -5.0905   -0.6175    0.0000 O   0  0  0  0  0  0  0  0  0  0  0  0
  2  1  1  6
  2  3  1  0
  3  4  1  0
  4  5  2  0
  5  6  1  0
  6  7  2  0
  7  8  1  0
  8  9  2  0
  2 10  1  0
 10 11  1  0
 11 12  2  0
 11 13  1  0
  9  4  1  0
M  END
>  <rName>  (1899) 
bAla_3Rpyrid3ylmethyl

>  <PQ_SYMBOL>  (1899) 
bAla_3Rpyrid3ylmethyl

>  <FULL_NAME>  (1899) 
(R)-3-amino-4-(pyridin-3-yl)butanoic acid

>  <IUPAC_CONDENSED>  (1899) 
bAla(3R-pyrid-3-ylmethyl)

>  <IUPAC>  (1899) 
(3R)-3-amino-4-(pyridin-3-yl)butanoic acid

>  <TYPE>  (1899) 
Backbone

>  <CLASS>  (1899) 
beta

>  <ANALOG>  (1899) 
Phe

>  <MOL_WT>  (1899) 
180.20699999999997

>  <LOGP>  (1899) 
0.4261000000000001

>  <TPSA>  (1899) 
76.21

>  <POPULARITY>  (1899) 
4.4

>  <PROTECTED>  (1899) 
TRUE

>  <SMILES>  (1899) 
N[C@H](Cc1(cccnc1))CC(=O)O

>  <INCHIKEY>  (1899) 
OODABKPTGCZGHL-MRVPVSSYSA-N

$$$$
bAla_3Rpyrid4ylmethyl
     RDKit          2D

 13 13  0  0  0  0  0  0  0  0999 V2000
   -0.9767    1.2065    0.0000 N   0  0  0  0  0  0  0  0  0  0  0  0
   -1.1358   -0.2850    0.0000 C   0  0  0  0  0  0  0  0  0  0  0  0
    0.0764   -1.1685    0.0000 C   0  0  0  0  0  0  0  0  0  0  0  0
    1.4476   -0.5605    0.0000 C   0  0  0  0  0  0  0  0  0  0  0  0
    1.6067    0.9310    0.0000 C   0  0  0  0  0  0  0  0  0  0  0  0
    2.9779    1.5390    0.0000 C   0  0  0  0  0  0  0  0  0  0  0  0
    4.1901    0.6555    0.0000 N   0  0  0  0  0  0  0  0  0  0  0  0
    4.0310   -0.8361    0.0000 C   0  0  0  0  0  0  0  0  0  0  0  0
    2.6598   -1.4441    0.0000 C   0  0  0  0  0  0  0  0  0  0  0  0
   -2.5071   -0.8930    0.0000 C   0  0  0  0  0  0  0  0  0  0  0  0
   -3.7192   -0.0095    0.0000 C   0  0  0  0  0  0  0  0  0  0  0  0
   -3.5602    1.4821    0.0000 O   0  0  0  0  0  0  0  0  0  0  0  0
   -5.0905   -0.6175    0.0000 O   0  0  0  0  0  0  0  0  0  0  0  0
  2  1  1  6
  2  3  1  0
  3  4  1  0
  4  5  1  0
  5  6  2  0
  6  7  1  0
  7  8  2  0
  8  9  1  0
  2 10  1  0
 10 11  1  0
 11 12  2  0
 11 13  1  0
  9  4  2  0
M  END
>  <rName>  (1900) 
bAla_3Rpyrid4ylmethyl

>  <PQ_SYMBOL>  (1900) 
bAla_3Rpyrid4ylmethyl

>  <FULL_NAME>  (1900) 
(R)-3-amino-4-(pyridin-4-yl)butanoic acid

>  <IUPAC_CONDENSED>  (1900) 
bAla(3R-pyrid-4-ylmethyl)

>  <IUPAC>  (1900) 
(3R)-3-amino-4-(pyridin-4-yl)butanoic acid

>  <TYPE>  (1900) 
Backbone

>  <CLASS>  (1900) 
beta

>  <ANALOG>  (1900) 
Phe

>  <MOL_WT>  (1900) 
180.20699999999997

>  <LOGP>  (1900) 
0.4261000000000001

>  <TPSA>  (1900) 
76.21

>  <POPULARITY>  (1900) 
3.6

>  <PROTECTED>  (1900) 
TRUE

>  <SMILES>  (1900) 
N[C@H](Cc1(ccncc1))CC(=O)O

>  <INCHIKEY>  (1900) 
HPMMXBBRJNNDBV-MRVPVSSYSA-N

$$$$
bAla_3RBn_2CF3
     RDKit          2D

 17 17  0  0  0  0  0  0  0  0999 V2000
   -2.0061    1.5285    0.0000 N   0  0  0  0  0  0  0  0  0  0  0  0
   -1.7839    0.0450    0.0000 C   0  0  0  0  0  0  0  0  0  0  0  0
   -0.3881   -0.5042    0.0000 C   0  0  0  0  0  0  0  0  0  0  0  0
    0.7855    0.4299    0.0000 C   0  0  0  0  0  0  0  0  0  0  0  0
    0.5633    1.9134    0.0000 C   0  0  0  0  0  0  0  0  0  0  0  0
    1.7369    2.8476    0.0000 C   0  0  0  0  0  0  0  0  0  0  0  0
    3.1327    2.2983    0.0000 C   0  0  0  0  0  0  0  0  0  0  0  0
    3.3549    0.8148    0.0000 C   0  0  0  0  0  0  0  0  0  0  0  0
    2.1813   -0.1193    0.0000 C   0  0  0  0  0  0  0  0  0  0  0  0
    2.4036   -1.6028    0.0000 C   0  0  0  0  0  0  0  0  0  0  0  0
    2.6258   -3.0862    0.0000 F   0  0  0  0  0  0  0  0  0  0  0  0
    3.8870   -1.3806    0.0000 F   0  0  0  0  0  0  0  0  0  0  0  0
    0.9201   -1.8250    0.0000 F   0  0  0  0  0  0  0  0  0  0  0  0
   -2.9575   -0.8891    0.0000 C   0  0  0  0  0  0  0  0  0  0  0  0
   -4.3533   -0.3398    0.0000 C   0  0  0  0  0  0  0  0  0  0  0  0
   -4.5755    1.1436    0.0000 O   0  0  0  0  0  0  0  0  0  0  0  0
   -5.5269   -1.2740    0.0000 O   0  0  0  0  0  0  0  0  0  0  0  0
  2  1  1  6
  2  3  1  0
  3  4  1  0
  4  5  2  0
  5  6  1  0
  6  7  2  0
  7  8  1  0
  8  9  2  0
  9 10  1  0
 10 11  1  0
 10 12  1  0
 10 13  1  0
  2 14  1  0
 14 15  1  0
 15 16  2  0
 15 17  1  0
  9  4  1  0
M  END
>  <rName>  (1901) 
bAla_3RBn_2CF3

>  <PQ_SYMBOL>  (1901) 
bAla_3RBn_2CF3

>  <FULL_NAME>  (1901) 
(R)-3-amino-4-(2-(trifluoromethyl)phenyl)butanoic acid

>  <IUPAC_CONDENSED>  (1901) 
bAla(3R-Bn(2-CF3))

>  <IUPAC>  (1901) 
(3R)-3-amino-4-(2-(trifluoromethyl)phenyl)butanoic acid

>  <TYPE>  (1901) 
Backbone

>  <CLASS>  (1901) 
beta

>  <ANALOG>  (1901) 
Phe

>  <MOL_WT>  (1901) 
247.21599999999992

>  <LOGP>  (1901) 
2.0499

>  <TPSA>  (1901) 
63.32000000000001

>  <POPULARITY>  (1901) 
3.6

>  <PROTECTED>  (1901) 
TRUE

>  <SMILES>  (1901) 
N[C@H](Cc1(ccccc1C(F)(F)F))CC(=O)O

>  <INCHIKEY>  (1901) 
VPYQIUMVXMMGSD-MRVPVSSYSA-N

$$$$
bAla_3RBn_3CF3
     RDKit          2D

 17 17  0  0  0  0  0  0  0  0999 V2000
   -2.5243    1.2650    0.0000 N   0  0  0  0  0  0  0  0  0  0  0  0
   -2.4358   -0.2324    0.0000 C   0  0  0  0  0  0  0  0  0  0  0  0
   -1.0948   -0.9044    0.0000 C   0  0  0  0  0  0  0  0  0  0  0  0
    0.1578   -0.0791    0.0000 C   0  0  0  0  0  0  0  0  0  0  0  0
    0.0693    1.4183    0.0000 C   0  0  0  0  0  0  0  0  0  0  0  0
    1.3218    2.2437    0.0000 C   0  0  0  0  0  0  0  0  0  0  0  0
    2.6628    1.5716    0.0000 C   0  0  0  0  0  0  0  0  0  0  0  0
    2.7513    0.0742    0.0000 C   0  0  0  0  0  0  0  0  0  0  0  0
    1.4988   -0.7511    0.0000 C   0  0  0  0  0  0  0  0  0  0  0  0
    4.0923   -0.5978    0.0000 C   0  0  0  0  0  0  0  0  0  0  0  0
    5.4334   -1.2698    0.0000 F   0  0  0  0  0  0  0  0  0  0  0  0
    3.4203   -1.9388    0.0000 F   0  0  0  0  0  0  0  0  0  0  0  0
    4.7644    0.7432    0.0000 F   0  0  0  0  0  0  0  0  0  0  0  0
   -3.6883   -1.0577    0.0000 C   0  0  0  0  0  0  0  0  0  0  0  0
   -5.0293   -0.3857    0.0000 C   0  0  0  0  0  0  0  0  0  0  0  0
   -5.1178    1.1117    0.0000 O   0  0  0  0  0  0  0  0  0  0  0  0
   -6.2819   -1.2110    0.0000 O   0  0  0  0  0  0  0  0  0  0  0  0
  2  1  1  6
  2  3  1  0
  3  4  1  0
  4  5  1  0
  5  6  2  0
  6  7  1  0
  7  8  2  0
  8  9  1  0
  8 10  1  0
 10 11  1  0
 10 12  1  0
 10 13  1  0
  2 14  1  0
 14 15  1  0
 15 16  2  0
 15 17  1  0
  9  4  2  0
M  END
>  <rName>  (1902) 
bAla_3RBn_3CF3

>  <PQ_SYMBOL>  (1902) 
bAla_3RBn_3CF3

>  <FULL_NAME>  (1902) 
(R)-3-amino-4-(3-(trifluoromethyl)phenyl)butanoic acid

>  <IUPAC_CONDENSED>  (1902) 
bAla(3R-Bn(3-CF3))

>  <IUPAC>  (1902) 
(3R)-3-amino-4-(3-(trifluoromethyl)phenyl)butanoic acid

>  <TYPE>  (1902) 
Backbone

>  <CLASS>  (1902) 
beta

>  <ANALOG>  (1902) 
Phe

>  <MOL_WT>  (1902) 
247.21599999999992

>  <LOGP>  (1902) 
2.0499

>  <TPSA>  (1902) 
63.32000000000001

>  <POPULARITY>  (1902) 
4

>  <PROTECTED>  (1902) 
TRUE

>  <SMILES>  (1902) 
N[C@H](Cc1(cccc(c1)C(F)(F)F))CC(=O)O

>  <INCHIKEY>  (1902) 
UUVNRBNPVFBPTH-SECBINFHSA-N

$$$$
bAla_3RBn_2CN
     RDKit          2D

 15 15  0  0  0  0  0  0  0  0999 V2000
   -1.5648    1.4565    0.0000 N   0  0  0  0  0  0  0  0  0  0  0  0
   -1.4725   -0.0406    0.0000 C   0  0  0  0  0  0  0  0  0  0  0  0
   -0.1298   -0.7093    0.0000 C   0  0  0  0  0  0  0  0  0  0  0  0
    1.1206    0.1192    0.0000 C   0  0  0  0  0  0  0  0  0  0  0  0
    1.0284    1.6163    0.0000 C   0  0  0  0  0  0  0  0  0  0  0  0
    2.2788    2.4448    0.0000 C   0  0  0  0  0  0  0  0  0  0  0  0
    3.6215    1.7761    0.0000 C   0  0  0  0  0  0  0  0  0  0  0  0
    3.7138    0.2790    0.0000 C   0  0  0  0  0  0  0  0  0  0  0  0
    2.4633   -0.5495    0.0000 C   0  0  0  0  0  0  0  0  0  0  0  0
    2.5556   -2.0467    0.0000 C   0  0  0  0  0  0  0  0  0  0  0  0
    2.6479   -3.5438    0.0000 N   0  0  0  0  0  0  0  0  0  0  0  0
   -2.7230   -0.8691    0.0000 C   0  0  0  0  0  0  0  0  0  0  0  0
   -4.0657   -0.2004    0.0000 C   0  0  0  0  0  0  0  0  0  0  0  0
   -4.1579    1.2967    0.0000 O   0  0  0  0  0  0  0  0  0  0  0  0
   -5.3161   -1.0289    0.0000 O   0  0  0  0  0  0  0  0  0  0  0  0
  2  1  1  6
  2  3  1  0
  3  4  1  0
  4  5  2  0
  5  6  1  0
  6  7  2  0
  7  8  1  0
  8  9  2  0
  9 10  1  0
 10 11  3  0
  2 12  1  0
 12 13  1  0
 13 14  2  0
 13 15  1  0
  9  4  1  0
M  END
>  <rName>  (1903) 
bAla_3RBn_2CN

>  <PQ_SYMBOL>  (1903) 
bAla_3RBn_2CN

>  <FULL_NAME>  (1903) 
(R)-3-amino-4-(2-cyanophenyl)butanoic acid

>  <IUPAC_CONDENSED>  (1903) 
bAla(3R-Bn(2-CN))

>  <IUPAC>  (1903) 
(3R)-3-amino-4-(2-(nitrilomethyl)phenyl)butanoic acid

>  <TYPE>  (1903) 
Backbone

>  <CLASS>  (1903) 
beta

>  <ANALOG>  (1903) 
Phe

>  <MOL_WT>  (1903) 
204.22899999999996

>  <LOGP>  (1903) 
0.9027800000000001

>  <TPSA>  (1903) 
87.11

>  <POPULARITY>  (1903) 
3.3

>  <PROTECTED>  (1903) 
TRUE

>  <SMILES>  (1903) 
N[C@H](Cc1(ccccc1C#N))CC(=O)O

>  <INCHIKEY>  (1903) 
VAIQDFORVKLNPH-SNVBAGLBSA-N

$$$$
bAla_3Spyrid3ylmethyl
     RDKit          2D

 13 13  0  0  0  0  0  0  0  0999 V2000
   -0.9767    1.2065    0.0000 N   0  0  0  0  0  0  0  0  0  0  0  0
   -1.1358   -0.2850    0.0000 C   0  0  0  0  0  0  0  0  0  0  0  0
    0.0764   -1.1685    0.0000 C   0  0  0  0  0  0  0  0  0  0  0  0
    1.4476   -0.5605    0.0000 C   0  0  0  0  0  0  0  0  0  0  0  0
    1.6067    0.9310    0.0000 C   0  0  0  0  0  0  0  0  0  0  0  0
    2.9779    1.5390    0.0000 C   0  0  0  0  0  0  0  0  0  0  0  0
    4.1901    0.6555    0.0000 C   0  0  0  0  0  0  0  0  0  0  0  0
    4.0310   -0.8361    0.0000 N   0  0  0  0  0  0  0  0  0  0  0  0
    2.6598   -1.4441    0.0000 C   0  0  0  0  0  0  0  0  0  0  0  0
   -2.5071   -0.8930    0.0000 C   0  0  0  0  0  0  0  0  0  0  0  0
   -3.7192   -0.0095    0.0000 C   0  0  0  0  0  0  0  0  0  0  0  0
   -3.5602    1.4821    0.0000 O   0  0  0  0  0  0  0  0  0  0  0  0
   -5.0905   -0.6175    0.0000 O   0  0  0  0  0  0  0  0  0  0  0  0
  2  1  1  1
  2  3  1  0
  3  4  1  0
  4  5  2  0
  5  6  1  0
  6  7  2  0
  7  8  1  0
  8  9  2  0
  2 10  1  0
 10 11  1  0
 11 12  2  0
 11 13  1  0
  9  4  1  0
M  END
>  <rName>  (1904) 
bAla_3Spyrid3ylmethyl

>  <PQ_SYMBOL>  (1904) 
bAla_3Spyrid3ylmethyl

>  <FULL_NAME>  (1904) 
(S)-3-amino-4-(pyridin-3-yl)butanoic acid

>  <IUPAC_CONDENSED>  (1904) 
bAla(3S-pyrid-3-ylmethyl)

>  <IUPAC>  (1904) 
(3S)-3-amino-4-(pyridin-3-yl)butanoic acid

>  <TYPE>  (1904) 
Backbone

>  <CLASS>  (1904) 
beta

>  <ANALOG>  (1904) 
Phe

>  <MOL_WT>  (1904) 
180.20699999999997

>  <LOGP>  (1904) 
0.4261000000000001

>  <TPSA>  (1904) 
76.21

>  <POPULARITY>  (1904) 
3.7

>  <PROTECTED>  (1904) 
TRUE

>  <SMILES>  (1904) 
N[C@@H](Cc1(cccnc1))CC(=O)O

>  <INCHIKEY>  (1904) 
OODABKPTGCZGHL-QMMMGPOBSA-N

$$$$
bAla_3SBn_2CF3
     RDKit          2D

 17 17  0  0  0  0  0  0  0  0999 V2000
   -2.0061    1.5285    0.0000 N   0  0  0  0  0  0  0  0  0  0  0  0
   -1.7839    0.0450    0.0000 C   0  0  0  0  0  0  0  0  0  0  0  0
   -0.3881   -0.5042    0.0000 C   0  0  0  0  0  0  0  0  0  0  0  0
    0.7855    0.4299    0.0000 C   0  0  0  0  0  0  0  0  0  0  0  0
    0.5633    1.9134    0.0000 C   0  0  0  0  0  0  0  0  0  0  0  0
    1.7369    2.8476    0.0000 C   0  0  0  0  0  0  0  0  0  0  0  0
    3.1327    2.2983    0.0000 C   0  0  0  0  0  0  0  0  0  0  0  0
    3.3549    0.8148    0.0000 C   0  0  0  0  0  0  0  0  0  0  0  0
    2.1813   -0.1193    0.0000 C   0  0  0  0  0  0  0  0  0  0  0  0
    2.4036   -1.6028    0.0000 C   0  0  0  0  0  0  0  0  0  0  0  0
    2.6258   -3.0862    0.0000 F   0  0  0  0  0  0  0  0  0  0  0  0
    3.8870   -1.3806    0.0000 F   0  0  0  0  0  0  0  0  0  0  0  0
    0.9201   -1.8250    0.0000 F   0  0  0  0  0  0  0  0  0  0  0  0
   -2.9575   -0.8891    0.0000 C   0  0  0  0  0  0  0  0  0  0  0  0
   -4.3533   -0.3398    0.0000 C   0  0  0  0  0  0  0  0  0  0  0  0
   -4.5755    1.1436    0.0000 O   0  0  0  0  0  0  0  0  0  0  0  0
   -5.5269   -1.2740    0.0000 O   0  0  0  0  0  0  0  0  0  0  0  0
  2  1  1  1
  2  3  1  0
  3  4  1  0
  4  5  2  0
  5  6  1  0
  6  7  2  0
  7  8  1  0
  8  9  2  0
  9 10  1  0
 10 11  1  0
 10 12  1  0
 10 13  1  0
  2 14  1  0
 14 15  1  0
 15 16  2  0
 15 17  1  0
  9  4  1  0
M  END
>  <rName>  (1905) 
bAla_3SBn_2CF3

>  <PQ_SYMBOL>  (1905) 
bAla_3SBn_2CF3

>  <FULL_NAME>  (1905) 
(S)-3-amino-4-(2-(trifluoromethyl)phenyl)butanoic acid

>  <IUPAC_CONDENSED>  (1905) 
bAla(3S-Bn(2-CF3))

>  <IUPAC>  (1905) 
(3S)-3-amino-4-(2-(trifluoromethyl)phenyl)butanoic acid

>  <TYPE>  (1905) 
Backbone

>  <CLASS>  (1905) 
beta

>  <ANALOG>  (1905) 
Phe

>  <MOL_WT>  (1905) 
247.21599999999992

>  <LOGP>  (1905) 
2.0499

>  <TPSA>  (1905) 
63.32000000000001

>  <POPULARITY>  (1905) 
3

>  <PROTECTED>  (1905) 
TRUE

>  <SMILES>  (1905) 
N[C@@H](Cc1(ccccc1C(F)(F)F))CC(=O)O

>  <INCHIKEY>  (1905) 
VPYQIUMVXMMGSD-QMMMGPOBSA-N

$$$$
bAla_3SBn_3CF3
     RDKit          2D

 17 17  0  0  0  0  0  0  0  0999 V2000
   -2.5243    1.2650    0.0000 N   0  0  0  0  0  0  0  0  0  0  0  0
   -2.4358   -0.2324    0.0000 C   0  0  0  0  0  0  0  0  0  0  0  0
   -1.0948   -0.9044    0.0000 C   0  0  0  0  0  0  0  0  0  0  0  0
    0.1578   -0.0791    0.0000 C   0  0  0  0  0  0  0  0  0  0  0  0
    0.0693    1.4183    0.0000 C   0  0  0  0  0  0  0  0  0  0  0  0
    1.3218    2.2437    0.0000 C   0  0  0  0  0  0  0  0  0  0  0  0
    2.6628    1.5716    0.0000 C   0  0  0  0  0  0  0  0  0  0  0  0
    2.7513    0.0742    0.0000 C   0  0  0  0  0  0  0  0  0  0  0  0
    1.4988   -0.7511    0.0000 C   0  0  0  0  0  0  0  0  0  0  0  0
    4.0923   -0.5978    0.0000 C   0  0  0  0  0  0  0  0  0  0  0  0
    5.4334   -1.2698    0.0000 F   0  0  0  0  0  0  0  0  0  0  0  0
    3.4203   -1.9388    0.0000 F   0  0  0  0  0  0  0  0  0  0  0  0
    4.7644    0.7432    0.0000 F   0  0  0  0  0  0  0  0  0  0  0  0
   -3.6883   -1.0577    0.0000 C   0  0  0  0  0  0  0  0  0  0  0  0
   -5.0293   -0.3857    0.0000 C   0  0  0  0  0  0  0  0  0  0  0  0
   -5.1178    1.1117    0.0000 O   0  0  0  0  0  0  0  0  0  0  0  0
   -6.2819   -1.2110    0.0000 O   0  0  0  0  0  0  0  0  0  0  0  0
  2  1  1  1
  2  3  1  0
  3  4  1  0
  4  5  1  0
  5  6  2  0
  6  7  1  0
  7  8  2  0
  8  9  1  0
  8 10  1  0
 10 11  1  0
 10 12  1  0
 10 13  1  0
  2 14  1  0
 14 15  1  0
 15 16  2  0
 15 17  1  0
  9  4  2  0
M  END
>  <rName>  (1906) 
bAla_3SBn_3CF3

>  <PQ_SYMBOL>  (1906) 
bAla_3SBn_3CF3

>  <FULL_NAME>  (1906) 
(S)-3-amino-4-(3-(trifluoromethyl)phenyl)butanoic acid

>  <IUPAC_CONDENSED>  (1906) 
bAla(3S-Bn(3-CF3))

>  <IUPAC>  (1906) 
(3S)-3-amino-4-(3-(trifluoromethyl)phenyl)butanoic acid

>  <TYPE>  (1906) 
Backbone

>  <CLASS>  (1906) 
beta

>  <ANALOG>  (1906) 
Phe

>  <MOL_WT>  (1906) 
247.21599999999992

>  <LOGP>  (1906) 
2.0499

>  <TPSA>  (1906) 
63.32000000000001

>  <POPULARITY>  (1906) 
5.4

>  <PROTECTED>  (1906) 
TRUE

>  <SMILES>  (1906) 
N[C@@H](Cc1(cccc(c1)C(F)(F)F))CC(=O)O

>  <INCHIKEY>  (1906) 
UUVNRBNPVFBPTH-VIFPVBQESA-N

$$$$
bAla_3RMeNH2
     RDKit          2D

  8  7  0  0  0  0  0  0  0  0999 V2000
   -0.7931    1.4169    0.0000 N   0  0  0  0  0  0  0  0  0  0  0  0
   -0.8131   -0.0829    0.0000 C   0  0  0  0  0  0  0  0  0  0  0  0
   -2.1220   -0.8156    0.0000 C   0  0  0  0  0  0  0  0  0  0  0  0
   -3.4109   -0.0483    0.0000 N   0  0  0  0  0  0  0  0  0  0  0  0
    0.4759   -0.8502    0.0000 C   0  0  0  0  0  0  0  0  0  0  0  0
    1.7848   -0.1175    0.0000 C   0  0  0  0  0  0  0  0  0  0  0  0
    1.8048    1.3823    0.0000 O   0  0  0  0  0  0  0  0  0  0  0  0
    3.0737   -0.8848    0.0000 O   0  0  0  0  0  0  0  0  0  0  0  0
  2  1  1  1
  2  3  1  0
  3  4  1  0
  2  5  1  0
  5  6  1  0
  6  7  2  0
  6  8  1  0
M  END
>  <rName>  (1907) 
bAla_3RMeNH2

>  <PQ_SYMBOL>  (1907) 
bAla_3RMeNH2

>  <FULL_NAME>  (1907) 
(S)-3,4-diaminobutanoic acid

>  <IUPAC_CONDENSED>  (1907) 
bAla(3R-MeNH2)

>  <IUPAC>  (1907) 
(3S)-3,4-diaminobutanoic acid

>  <TYPE>  (1907) 
Backbone

>  <CLASS>  (1907) 
beta

>  <ANALOG>  (1907) 
X

>  <MOL_WT>  (1907) 
118.13599999999998

>  <LOGP>  (1907) 
-1.2529

>  <TPSA>  (1907) 
89.34

>  <POPULARITY>  (1907) 
15

>  <PROTECTED>  (1907) 
TRUE

>  <SMILES>  (1907) 
N[C@H](CN)CC(=O)O

>  <INCHIKEY>  (1907) 
XQKAYTBBWLDCBB-VKHMYHEASA-N

$$$$
Ac6c_EtOH
     RDKit          2D

 14 15  0  0  0  0  0  0  0  0999 V2000
    2.5384   -1.4789    0.0000 N   0  0  0  0  0  0  0  0  0  0  0  0
    1.5104   -0.3865    0.0000 C   0  0  0  0  0  0  0  0  0  0  0  0
    0.6132   -1.5886    0.0000 C   0  0  0  0  0  0  0  0  0  0  0  0
   -0.8765   -1.4126    0.0000 C   0  0  0  0  0  0  0  0  0  0  0  0
   -1.4689   -0.0345    0.0000 C   0  0  0  0  0  0  0  0  0  0  0  0
   -2.4869   -1.1362    0.0000 O   0  0  0  0  0  0  0  0  0  0  0  0
   -3.8492   -0.5085    0.0000 C   0  0  0  0  0  0  0  0  0  0  0  0
   -3.6732    0.9812    0.0000 C   0  0  0  0  0  0  0  0  0  0  0  0
   -2.2021    1.2741    0.0000 O   0  0  0  0  0  0  0  0  0  0  0  0
   -0.5716    1.1676    0.0000 C   0  0  0  0  0  0  0  0  0  0  0  0
    0.9180    0.9916    0.0000 C   0  0  0  0  0  0  0  0  0  0  0  0
    2.7647    0.4362    0.0000 C   0  0  0  0  0  0  0  0  0  0  0  0
    2.6793    1.9337    0.0000 O   0  0  0  0  0  0  0  0  0  0  0  0
    4.1043   -0.2387    0.0000 O   0  0  0  0  0  0  0  0  0  0  0  0
  1  2  1  0
  2  3  1  0
  3  4  1  0
  4  5  1  0
  5  6  1  0
  6  7  1  0
  7  8  1  0
  8  9  1  0
  5 10  1  0
 10 11  1  0
  2 12  1  0
 12 13  2  0
 12 14  1  0
  9  5  1  0
 11  2  1  0
M  END
>  <rName>  (1908) 
Ac6c_EtOH

>  <PQ_SYMBOL>  (1908) 
Ac6c_EtOH

>  <FULL_NAME>  (1908) 
8-amino-1,4-dioxaspiro[4.5]decane-8-carboxylic acid

>  <IUPAC_CONDENSED>  (1908) 
Ac6c(EtOH)

>  <IUPAC>  (1908) 
8-amino-1,4-dioxaspiro[4.5]decane-8-carboxylic acid

>  <TYPE>  (1908) 
Backbone

>  <CLASS>  (1908) 
alpha

>  <ANALOG>  (1908) 
X

>  <MOL_WT>  (1908) 
201.22199999999998

>  <LOGP>  (1908) 
0.0855999999999994

>  <TPSA>  (1908) 
81.78

>  <POPULARITY>  (1908) 
5

>  <PROTECTED>  (1908) 
TRUE

>  <SMILES>  (1908) 
NC2(CCC1(OCCO1)CC2)C(=O)O

>  <INCHIKEY>  (1908) 
HIIFALCQUKTUHB-UHFFFAOYSA-N

$$$$
bAla_3RPh_23diOMe
     RDKit          2D

 16 16  0  0  0  0  0  0  0  0999 V2000
   -1.3353   -1.5465    0.0000 N   0  0  0  0  0  0  0  0  0  0  0  0
   -1.2249   -0.0506    0.0000 C   0  0  0  0  0  0  0  0  0  0  0  0
    0.1258    0.6017    0.0000 C   0  0  0  0  0  0  0  0  0  0  0  0
    0.2363    2.0977    0.0000 C   0  0  0  0  0  0  0  0  0  0  0  0
    1.5870    2.7500    0.0000 C   0  0  0  0  0  0  0  0  0  0  0  0
    2.8273    1.9064    0.0000 C   0  0  0  0  0  0  0  0  0  0  0  0
    2.7169    0.4105    0.0000 C   0  0  0  0  0  0  0  0  0  0  0  0
    3.9572   -0.4331    0.0000 O   0  0  0  0  0  0  0  0  0  0  0  0
    3.8467   -1.9291    0.0000 C   0  0  0  0  0  0  0  0  0  0  0  0
    1.3661   -0.2419    0.0000 C   0  0  0  0  0  0  0  0  0  0  0  0
    1.2557   -1.7378    0.0000 O   0  0  0  0  0  0  0  0  0  0  0  0
   -0.0950   -2.3901    0.0000 C   0  0  0  0  0  0  0  0  0  0  0  0
   -2.4652    0.7930    0.0000 C   0  0  0  0  0  0  0  0  0  0  0  0
   -3.8159    0.1407    0.0000 C   0  0  0  0  0  0  0  0  0  0  0  0
   -3.9264   -1.3552    0.0000 O   0  0  0  0  0  0  0  0  0  0  0  0
   -5.0562    0.9843    0.0000 O   0  0  0  0  0  0  0  0  0  0  0  0
  2  1  1  1
  2  3  1  0
  3  4  2  0
  4  5  1  0
  5  6  2  0
  6  7  1  0
  7  8  1  0
  8  9  1  0
  7 10  2  0
 10 11  1  0
 11 12  1  0
  2 13  1  0
 13 14  1  0
 14 15  2  0
 14 16  1  0
 10  3  1  0
M  END
>  <rName>  (1909) 
bAla_3RPh_23diOMe

>  <PQ_SYMBOL>  (1909) 
bAla_3RPh_23diOMe

>  <FULL_NAME>  (1909) 
(S)-3-amino-3-(2,3-dimethoxyphenyl)propanoic acid

>  <IUPAC_CONDENSED>  (1909) 
bAla(3R-Ph(2,3-diOMe))

>  <IUPAC>  (1909) 
(3S)-3-amino-3-(2,3-dimethoxyphenyl)propanoic acid

>  <TYPE>  (1909) 
Backbone

>  <CLASS>  (1909) 
beta

>  <ANALOG>  (1909) 
X

>  <MOL_WT>  (1909) 
225.24399999999994

>  <LOGP>  (1909) 
1.1783000000000001

>  <TPSA>  (1909) 
81.78

>  <POPULARITY>  (1909) 
6.3

>  <PROTECTED>  (1909) 
TRUE

>  <SMILES>  (1909) 
N[C@H](c1(cccc(OC)c1OC))CC(=O)O

>  <INCHIKEY>  (1909) 
XZFWLSJPXJTSMZ-QMMMGPOBSA-N

$$$$
bAla_3RPh_34diOMe
     RDKit          2D

 16 16  0  0  0  0  0  0  0  0999 V2000
   -2.1244   -1.8021    0.0000 N   0  0  0  0  0  0  0  0  0  0  0  0
   -1.8137   -0.3346    0.0000 C   0  0  0  0  0  0  0  0  0  0  0  0
   -0.3874    0.1300    0.0000 C   0  0  0  0  0  0  0  0  0  0  0  0
   -0.0767    1.5974    0.0000 C   0  0  0  0  0  0  0  0  0  0  0  0
    1.3496    2.0620    0.0000 C   0  0  0  0  0  0  0  0  0  0  0  0
    2.4650    1.0592    0.0000 C   0  0  0  0  0  0  0  0  0  0  0  0
    3.8913    1.5238    0.0000 O   0  0  0  0  0  0  0  0  0  0  0  0
    5.0067    0.5209    0.0000 C   0  0  0  0  0  0  0  0  0  0  0  0
    2.1543   -0.4083    0.0000 C   0  0  0  0  0  0  0  0  0  0  0  0
    3.2698   -1.4111    0.0000 O   0  0  0  0  0  0  0  0  0  0  0  0
    2.9590   -2.8786    0.0000 C   0  0  0  0  0  0  0  0  0  0  0  0
    0.7280   -0.8729    0.0000 C   0  0  0  0  0  0  0  0  0  0  0  0
   -2.9291    0.6682    0.0000 C   0  0  0  0  0  0  0  0  0  0  0  0
   -4.3554    0.2036    0.0000 C   0  0  0  0  0  0  0  0  0  0  0  0
   -4.6661   -1.2639    0.0000 O   0  0  0  0  0  0  0  0  0  0  0  0
   -5.4709    1.2064    0.0000 O   0  0  0  0  0  0  0  0  0  0  0  0
  2  1  1  1
  2  3  1  0
  3  4  1  0
  4  5  2  0
  5  6  1  0
  6  7  1  0
  7  8  1  0
  6  9  2  0
  9 10  1  0
 10 11  1  0
  9 12  1  0
  2 13  1  0
 13 14  1  0
 14 15  2  0
 14 16  1  0
 12  3  2  0
M  END
>  <rName>  (1910) 
bAla_3RPh_34diOMe

>  <PQ_SYMBOL>  (1910) 
bAla_3RPh_34diOMe

>  <FULL_NAME>  (1910) 
(S)-3-amino-3-(3,4-dimethoxyphenyl)propanoic acid

>  <IUPAC_CONDENSED>  (1910) 
bAla(3R-Ph(3,4-diOMe))

>  <IUPAC>  (1910) 
(3S)-3-amino-3-(3,4-dimethoxyphenyl)propanoic acid

>  <TYPE>  (1910) 
Backbone

>  <CLASS>  (1910) 
beta

>  <ANALOG>  (1910) 
X

>  <MOL_WT>  (1910) 
225.24399999999997

>  <LOGP>  (1910) 
1.1783000000000001

>  <TPSA>  (1910) 
81.78

>  <POPULARITY>  (1910) 
6.8

>  <PROTECTED>  (1910) 
TRUE

>  <SMILES>  (1910) 
N[C@H](c1(ccc(OC)c(OC)c1))CC(=O)O

>  <INCHIKEY>  (1910) 
FGCXSFRGPCUBPW-QMMMGPOBSA-N

$$$$
bAla_3RPh_35diOMe
     RDKit          2D

 16 16  0  0  0  0  0  0  0  0999 V2000
   -2.1417   -1.8682    0.0000 N   0  0  0  0  0  0  0  0  0  0  0  0
   -1.6325   -0.4573    0.0000 C   0  0  0  0  0  0  0  0  0  0  0  0
   -0.1559   -0.1929    0.0000 C   0  0  0  0  0  0  0  0  0  0  0  0
    0.3533    1.2180    0.0000 C   0  0  0  0  0  0  0  0  0  0  0  0
    1.8298    1.4824    0.0000 C   0  0  0  0  0  0  0  0  0  0  0  0
    2.3391    2.8933    0.0000 O   0  0  0  0  0  0  0  0  0  0  0  0
    3.8156    3.1577    0.0000 C   0  0  0  0  0  0  0  0  0  0  0  0
    2.7971    0.3359    0.0000 C   0  0  0  0  0  0  0  0  0  0  0  0
    2.2878   -1.0750    0.0000 C   0  0  0  0  0  0  0  0  0  0  0  0
    3.2550   -2.2215    0.0000 O   0  0  0  0  0  0  0  0  0  0  0  0
    2.7458   -3.6324    0.0000 C   0  0  0  0  0  0  0  0  0  0  0  0
    0.8113   -1.3394    0.0000 C   0  0  0  0  0  0  0  0  0  0  0  0
   -2.5997    0.6892    0.0000 C   0  0  0  0  0  0  0  0  0  0  0  0
   -4.0762    0.4248    0.0000 C   0  0  0  0  0  0  0  0  0  0  0  0
   -4.5855   -0.9861    0.0000 O   0  0  0  0  0  0  0  0  0  0  0  0
   -5.0434    1.5713    0.0000 O   0  0  0  0  0  0  0  0  0  0  0  0
  2  1  1  1
  2  3  1  0
  3  4  2  0
  4  5  1  0
  5  6  1  0
  6  7  1  0
  5  8  2  0
  8  9  1  0
  9 10  1  0
 10 11  1  0
  9 12  2  0
  2 13  1  0
 13 14  1  0
 14 15  2  0
 14 16  1  0
 12  3  1  0
M  END
>  <rName>  (1911) 
bAla_3RPh_35diOMe

>  <PQ_SYMBOL>  (1911) 
bAla_3RPh_35diOMe

>  <FULL_NAME>  (1911) 
(S)-3-amino-3-(3,5-dimethoxyphenyl)propanoic acid

>  <IUPAC_CONDENSED>  (1911) 
bAla(3R-Ph(3,5-diOMe))

>  <IUPAC>  (1911) 
(3S)-3-amino-3-(3,5-dimethoxyphenyl)propanoic acid

>  <TYPE>  (1911) 
Backbone

>  <CLASS>  (1911) 
beta

>  <ANALOG>  (1911) 
X

>  <MOL_WT>  (1911) 
225.24399999999997

>  <LOGP>  (1911) 
1.1783000000000001

>  <TPSA>  (1911) 
81.78

>  <POPULARITY>  (1911) 
7

>  <PROTECTED>  (1911) 
TRUE

>  <SMILES>  (1911) 
N[C@H](c1(cc(OC)cc(OC)c1))CC(=O)O

>  <INCHIKEY>  (1911) 
HUPNLRFWWQFWCS-JTQLQIEISA-N

$$$$
bAla_3SPh_34diOMe
     RDKit          2D

 16 16  0  0  0  0  0  0  0  0999 V2000
   -2.1244   -1.8021    0.0000 N   0  0  0  0  0  0  0  0  0  0  0  0
   -1.8137   -0.3346    0.0000 C   0  0  0  0  0  0  0  0  0  0  0  0
   -0.3874    0.1300    0.0000 C   0  0  0  0  0  0  0  0  0  0  0  0
   -0.0767    1.5974    0.0000 C   0  0  0  0  0  0  0  0  0  0  0  0
    1.3496    2.0620    0.0000 C   0  0  0  0  0  0  0  0  0  0  0  0
    2.4650    1.0592    0.0000 C   0  0  0  0  0  0  0  0  0  0  0  0
    3.8913    1.5238    0.0000 O   0  0  0  0  0  0  0  0  0  0  0  0
    5.0067    0.5209    0.0000 C   0  0  0  0  0  0  0  0  0  0  0  0
    2.1543   -0.4083    0.0000 C   0  0  0  0  0  0  0  0  0  0  0  0
    3.2698   -1.4111    0.0000 O   0  0  0  0  0  0  0  0  0  0  0  0
    2.9590   -2.8786    0.0000 C   0  0  0  0  0  0  0  0  0  0  0  0
    0.7280   -0.8729    0.0000 C   0  0  0  0  0  0  0  0  0  0  0  0
   -2.9291    0.6682    0.0000 C   0  0  0  0  0  0  0  0  0  0  0  0
   -4.3554    0.2036    0.0000 C   0  0  0  0  0  0  0  0  0  0  0  0
   -4.6661   -1.2639    0.0000 O   0  0  0  0  0  0  0  0  0  0  0  0
   -5.4709    1.2064    0.0000 O   0  0  0  0  0  0  0  0  0  0  0  0
  2  1  1  6
  2  3  1  0
  3  4  1  0
  4  5  2  0
  5  6  1  0
  6  7  1  0
  7  8  1  0
  6  9  2  0
  9 10  1  0
 10 11  1  0
  9 12  1  0
  2 13  1  0
 13 14  1  0
 14 15  2  0
 14 16  1  0
 12  3  2  0
M  END
>  <rName>  (1912) 
bAla_3SPh_34diOMe

>  <PQ_SYMBOL>  (1912) 
bAla_3SPh_34diOMe

>  <FULL_NAME>  (1912) 
(R)-3-amino-3-(3,4-dimethoxyphenyl)propanoic acid

>  <IUPAC_CONDENSED>  (1912) 
bAla(3S-Ph(3,4-diOMe))

>  <IUPAC>  (1912) 
(3R)-3-amino-3-(3,4-dimethoxyphenyl)propanoic acid

>  <TYPE>  (1912) 
Backbone

>  <CLASS>  (1912) 
beta

>  <ANALOG>  (1912) 
X

>  <MOL_WT>  (1912) 
225.24399999999997

>  <LOGP>  (1912) 
1.1783000000000001

>  <TPSA>  (1912) 
81.78

>  <POPULARITY>  (1912) 
7.9

>  <PROTECTED>  (1912) 
TRUE

>  <SMILES>  (1912) 
N[C@@H](c1(ccc(OC)c(OC)c1))CC(=O)O

>  <INCHIKEY>  (1912) 
FGCXSFRGPCUBPW-MRVPVSSYSA-N

$$$$
bAla_3Sthien3yl
     RDKit          2D

 11 11  0  0  0  0  0  0  0  0999 V2000
   -0.7304   -1.8619    0.0000 N   0  0  0  0  0  0  0  0  0  0  0  0
   -0.2874   -0.4288    0.0000 C   0  0  0  0  0  0  0  0  0  0  0  0
    1.1751   -0.0958    0.0000 C   0  0  0  0  0  0  0  0  0  0  0  0
    2.3042   -1.0834    0.0000 C   0  0  0  0  0  0  0  0  0  0  0  0
    3.5923   -0.3148    0.0000 C   0  0  0  0  0  0  0  0  0  0  0  0
    3.2594    1.1478    0.0000 S   0  0  0  0  0  0  0  0  0  0  0  0
    1.7655    1.2831    0.0000 C   0  0  0  0  0  0  0  0  0  0  0  0
   -1.3071    0.6714    0.0000 C   0  0  0  0  0  0  0  0  0  0  0  0
   -2.7697    0.3385    0.0000 C   0  0  0  0  0  0  0  0  0  0  0  0
   -3.2126   -1.0946    0.0000 O   0  0  0  0  0  0  0  0  0  0  0  0
   -3.7893    1.4386    0.0000 O   0  0  0  0  0  0  0  0  0  0  0  0
  2  1  1  6
  2  3  1  0
  3  4  1  0
  4  5  2  0
  5  6  1  0
  6  7  1  0
  2  8  1  0
  8  9  1  0
  9 10  2  0
  9 11  1  0
  7  3  2  0
M  END
>  <rName>  (1913) 
bAla_3Sthien3yl

>  <PQ_SYMBOL>  (1913) 
bAla_3Sthien3yl

>  <FULL_NAME>  (1913) 
(R)-3-amino-3-(thiophen-3-yl)propanoic acid

>  <IUPAC_CONDENSED>  (1913) 
bAla(3S-thien-3-yl)

>  <IUPAC>  (1913) 
(3R)-3-amino-3-(thiophen-3-yl)propanoic acid

>  <TYPE>  (1913) 
Backbone

>  <CLASS>  (1913) 
beta

>  <ANALOG>  (1913) 
X

>  <MOL_WT>  (1913) 
171.22099999999998

>  <LOGP>  (1913) 
1.2226000000000001

>  <TPSA>  (1913) 
63.32000000000001

>  <POPULARITY>  (1913) 
7.3

>  <PROTECTED>  (1913) 
TRUE

>  <SMILES>  (1913) 
N[C@@H](c1(ccsc1))CC(=O)O

>  <INCHIKEY>  (1913) 
UPDVATYZQLTZOZ-ZCFIWIBFSA-N

$$$$
bAla_3SPh_4CN
     RDKit          2D

 14 14  0  0  0  0  0  0  0  0999 V2000
   -2.0793   -1.8631    0.0000 N   0  0  0  0  0  0  0  0  0  0  0  0
   -1.5043   -0.4777    0.0000 C   0  0  0  0  0  0  0  0  0  0  0  0
   -0.0170   -0.2830    0.0000 C   0  0  0  0  0  0  0  0  0  0  0  0
    0.5581    1.1024    0.0000 C   0  0  0  0  0  0  0  0  0  0  0  0
    2.0454    1.2971    0.0000 C   0  0  0  0  0  0  0  0  0  0  0  0
    2.9576    0.1064    0.0000 C   0  0  0  0  0  0  0  0  0  0  0  0
    4.4449    0.3011    0.0000 C   0  0  0  0  0  0  0  0  0  0  0  0
    5.9323    0.4958    0.0000 N   0  0  0  0  0  0  0  0  0  0  0  0
    2.3826   -1.2790    0.0000 C   0  0  0  0  0  0  0  0  0  0  0  0
    0.8953   -1.4737    0.0000 C   0  0  0  0  0  0  0  0  0  0  0  0
   -2.4166    0.7130    0.0000 C   0  0  0  0  0  0  0  0  0  0  0  0
   -3.9039    0.5183    0.0000 C   0  0  0  0  0  0  0  0  0  0  0  0
   -4.4789   -0.8671    0.0000 O   0  0  0  0  0  0  0  0  0  0  0  0
   -4.8162    1.7090    0.0000 O   0  0  0  0  0  0  0  0  0  0  0  0
  2  1  1  6
  2  3  1  0
  3  4  1  0
  4  5  2  0
  5  6  1  0
  6  7  1  0
  7  8  3  0
  6  9  2  0
  9 10  1  0
  2 11  1  0
 11 12  1  0
 12 13  2  0
 12 14  1  0
 10  3  2  0
M  END
>  <rName>  (1914) 
bAla_3SPh_4CN

>  <PQ_SYMBOL>  (1914) 
bAla_3SPh_4CN

>  <FULL_NAME>  (1914) 
(R)-3-amino-3-(4-cyanophenyl)propanoic acid

>  <IUPAC_CONDENSED>  (1914) 
bAla(3S-Ph(4-CN))

>  <IUPAC>  (1914) 
(3R)-3-amino-3-(4-(nitrilomethyl)phenyl)propanoic acid

>  <TYPE>  (1914) 
Backbone

>  <CLASS>  (1914) 
beta

>  <ANALOG>  (1914) 
Lys

>  <MOL_WT>  (1914) 
190.20199999999997

>  <LOGP>  (1914) 
1.03278

>  <TPSA>  (1914) 
87.11

>  <POPULARITY>  (1914) 
7.4

>  <PROTECTED>  (1914) 
TRUE

>  <SMILES>  (1914) 
N[C@@H](c1(ccc(C#N)cc1))CC(=O)O

>  <INCHIKEY>  (1914) 
JFPLLJRLBHIJPS-SECBINFHSA-N

$$$$
NMe-Hcy
     RDKit          2D

  9  8  0  0  0  0  0  0  0  0999 V2000
   -1.4625    1.4907    0.0000 N   0  0  0  0  0  0  0  0  0  0  0  0
   -2.8857    1.0168    0.0000 C   0  0  0  0  0  0  0  0  0  0  0  0
   -0.3405    0.4951    0.0000 C   0  0  0  0  0  0  0  0  0  0  0  0
    1.0826    0.9690    0.0000 C   0  0  0  0  0  0  0  0  0  0  0  0
    2.2046   -0.0266    0.0000 C   0  0  0  0  0  0  0  0  0  0  0  0
    3.6278    0.4473    0.0000 S   0  0  0  0  0  0  0  0  0  0  0  0
   -0.6417   -0.9743    0.0000 C   0  0  0  0  0  0  0  0  0  0  0  0
   -2.0649   -1.4482    0.0000 O   0  0  0  0  0  0  0  0  0  0  0  0
    0.4803   -1.9699    0.0000 O   0  0  0  0  0  0  0  0  0  0  0  0
  1  2  1  0
  1  3  1  0
  3  4  1  1
  4  5  1  0
  5  6  1  0
  3  7  1  0
  7  8  2  0
  7  9  1  0
M  END
>  <rName>  (1915) 
NMe-Hcy

>  <PQ_SYMBOL>  (1915) 
NMe-Hcy

>  <FULL_NAME>  (1915) 
methyl-L-homocysteine

>  <IUPAC_CONDENSED>  (1915) 
Me-Hcy

>  <IUPAC>  (1915) 
(2S)-2-(methylamino)-4-sulfanylbutanoic acid

>  <TYPE>  (1915) 
Backbone

>  <CLASS>  (1915) 
alpha

>  <ANALOG>  (1915) 
Cys

>  <MOL_WT>  (1915) 
149.215

>  <LOGP>  (1915) 
-0.02110000000000012

>  <TPSA>  (1915) 
49.33

>  <POPULARITY>  (1915) 
14.1

>  <PROTECTED>  (1915) 
TRUE

>  <SMILES>  (1915) 
N(C)[C@@H](CCS)C(=O)O

>  <INCHIKEY>  (1915) 
PHMDDWYPVDXMNL-BYPYZUCNSA-N

$$$$
Ser-Gly
     RDKit          2D

 11 10  0  0  0  0  0  0  0  0999 V2000
    0.5947    0.1918    0.0000 N   0  0  0  0  0  0  0  0  0  0  0  0
   -0.7201   -0.5301    0.0000 C   0  0  0  0  0  0  0  0  0  0  0  0
   -0.7523   -2.0298    0.0000 O   0  0  0  0  0  0  0  0  0  0  0  0
   -2.0028    0.2476    0.0000 C   0  0  0  0  0  0  0  0  0  0  0  0
   -1.9706    1.7472    0.0000 N   0  0  0  0  0  0  0  0  0  0  0  0
   -3.3176   -0.4744    0.0000 C   0  0  0  0  0  0  0  0  0  0  0  0
   -4.6002    0.3033    0.0000 O   0  0  0  0  0  0  0  0  0  0  0  0
    1.8774   -0.5859    0.0000 C   0  0  0  0  0  0  0  0  0  0  0  0
    3.1922    0.1361    0.0000 C   0  0  0  0  0  0  0  0  0  0  0  0
    3.2244    1.6357    0.0000 O   0  0  0  0  0  0  0  0  0  0  0  0
    4.4748   -0.6416    0.0000 O   0  0  0  0  0  0  0  0  0  0  0  0
  1  2  1  0
  2  3  2  0
  2  4  1  0
  4  5  1  6
  4  6  1  0
  6  7  1  0
  1  8  1  0
  8  9  1  0
  9 10  2  0
  9 11  1  0
M  END
>  <rName>  (1916) 
Ser-Gly

>  <PQ_SYMBOL>  (1916) 
Ser-Gly

>  <FULL_NAME>  (1916) 
L-serylglycine

>  <IUPAC_CONDENSED>  (1916) 
Ser-Gly

>  <IUPAC>  (1916) 
2-((1S)-1-amino-2-hydroxyethylcarbonylamino)acetic acid

>  <TYPE>  (1916) 
Backbone

>  <CLASS>  (1916) 
alpha

>  <ANALOG>  (1916) 
Gly

>  <MOL_WT>  (1916) 
162.145

>  <LOGP>  (1916) 
-2.4932

>  <TPSA>  (1916) 
112.65000000000002

>  <POPULARITY>  (1916) 
14.9

>  <PROTECTED>  (1916) 
TRUE

>  <SMILES>  (1916) 
N(C(=O)[C@@H](N)CO)CC(=O)O

>  <INCHIKEY>  (1916) 
WOUIMBGNEUWXQG-VKHMYHEASA-N

$$$$
Ala_CF2PO3
     RDKit          2D

 13 12  0  0  0  0  0  0  0  0999 V2000
   -1.6012    1.8818    0.0000 N   0  0  0  0  0  0  0  0  0  0  0  0
   -1.4696    0.3876    0.0000 C   0  0  0  0  0  0  0  0  0  0  0  0
   -0.1097   -0.2455    0.0000 C   0  0  0  0  0  0  0  0  0  0  0  0
    1.1185    0.6156    0.0000 C   0  0  0  0  0  0  0  0  0  0  0  0
    2.3467    1.4767    0.0000 F   0  0  0  0  0  0  0  0  0  0  0  0
    0.2574    1.8438    0.0000 F   0  0  0  0  0  0  0  0  0  0  0  0
    1.9796   -0.6126    0.0000 P   0  0  0  0  0  0  0  0  0  0  0  0
    2.8407   -1.8408    0.0000 O   0  0  0  0  0  0  0  0  0  0  0  0
    3.2078    0.2485    0.0000 O   0  0  0  0  0  0  0  0  0  0  0  0
    0.7514   -1.4737    0.0000 O   0  0  0  0  0  0  0  0  0  0  0  0
   -2.6978   -0.4735    0.0000 C   0  0  0  0  0  0  0  0  0  0  0  0
   -2.5661   -1.9677    0.0000 O   0  0  0  0  0  0  0  0  0  0  0  0
   -4.0576    0.1596    0.0000 O   0  0  0  0  0  0  0  0  0  0  0  0
  2  1  1  1
  2  3  1  0
  3  4  1  0
  4  5  1  0
  4  6  1  0
  4  7  1  0
  7  8  2  0
  7  9  1  0
  7 10  1  0
  2 11  1  0
 11 12  2  0
 11 13  1  0
M  END
>  <rName>  (1917) 
Ala_CF2PO3

>  <PQ_SYMBOL>  (1917) 
Ala_CF2PO3

>  <FULL_NAME>  (1917) 
(S)-2-amino-4,4-difluoro-4-phosphonobutanoic acid

>  <IUPAC_CONDENSED>  (1917) 
Ala(CF2PO3)

>  <IUPAC>  (1917) 
(2S)-2-amino-4-(dihydroxyphosphoryl)-4,4-difluorobutanoic acid

>  <TYPE>  (1917) 
Backbone

>  <CLASS>  (1917) 
alpha

>  <ANALOG>  (1917) 
X

>  <MOL_WT>  (1917) 
219.08

>  <LOGP>  (1917) 
-0.4411000000000002

>  <TPSA>  (1917) 
120.85000000000001

>  <POPULARITY>  (1917) 
2.9

>  <PROTECTED>  (1917) 
TRUE

>  <SMILES>  (1917) 
N[C@@H](CC(F)(F)P(=O)(O)O)C(=O)O

>  <INCHIKEY>  (1917) 
NIZXHJQYBQHCBB-REOHCLBHSA-N

$$$$
Pip_4ROH
     RDKit          2D

 10 10  0  0  0  0  0  0  0  0999 V2000
   -0.2551   -1.5451    0.0000 N   0  0  0  0  0  0  0  0  0  0  0  0
   -0.6466   -0.0971    0.0000 C   0  0  0  0  0  0  0  0  0  0  0  0
    0.4117    0.9659    0.0000 C   0  0  0  0  0  0  0  0  0  0  0  0
    1.8615    0.5809    0.0000 C   0  0  0  0  0  0  0  0  0  0  0  0
    2.9197    1.6440    0.0000 O   0  0  0  0  0  0  0  0  0  0  0  0
    2.2529   -0.8671    0.0000 C   0  0  0  0  0  0  0  0  0  0  0  0
    1.1946   -1.9301    0.0000 C   0  0  0  0  0  0  0  0  0  0  0  0
   -2.0963    0.2879    0.0000 C   0  0  0  0  0  0  0  0  0  0  0  0
   -3.1546   -0.7752    0.0000 O   0  0  0  0  0  0  0  0  0  0  0  0
   -2.4878    1.7359    0.0000 O   0  0  0  0  0  0  0  0  0  0  0  0
  1  2  1  0
  2  3  1  0
  3  4  1  0
  4  5  1  6
  4  6  1  0
  6  7  1  0
  2  8  1  6
  8  9  2  0
  8 10  1  0
  7  1  1  0
M  END
>  <rName>  (1918) 
Pip_4ROH

>  <PQ_SYMBOL>  (1918) 
Pip_4ROH

>  <FULL_NAME>  (1918) 
(2S,4R)-4-hydroxypiperidine-2-carboxylic acid

>  <IUPAC_CONDENSED>  (1918) 
Pip(4R-OH)

>  <IUPAC>  (1918) 
(2S,4R)-4-hydroxypiperidine-2-carboxylic acid

>  <TYPE>  (1918) 
Backbone

>  <CLASS>  (1918) 
alpha

>  <ANALOG>  (1918) 
Pro

>  <MOL_WT>  (1918) 
145.15800000000002

>  <LOGP>  (1918) 
-0.8161000000000005

>  <TPSA>  (1918) 
69.56

>  <POPULARITY>  (1918) 
9.1

>  <PROTECTED>  (1918) 
TRUE

>  <SMILES>  (1918) 
N1[C@@H](C[C@H](O)CC1)C(=O)O

>  <INCHIKEY>  (1918) 
KRHNXNZBLHHEIU-UHNVWZDZSA-N

$$$$
bAla_3Spyrid3yl_6OMe
     RDKit          2D

 14 14  0  0  0  0  0  0  0  0999 V2000
   -1.9239   -1.8882    0.0000 N   0  0  0  0  0  0  0  0  0  0  0  0
   -1.4367   -0.4695    0.0000 C   0  0  0  0  0  0  0  0  0  0  0  0
    0.0356   -0.1821    0.0000 C   0  0  0  0  0  0  0  0  0  0  0  0
    0.5228    1.2365    0.0000 C   0  0  0  0  0  0  0  0  0  0  0  0
    1.9950    1.5239    0.0000 C   0  0  0  0  0  0  0  0  0  0  0  0
    2.9800    0.3926    0.0000 C   0  0  0  0  0  0  0  0  0  0  0  0
    4.4522    0.6799    0.0000 O   0  0  0  0  0  0  0  0  0  0  0  0
    5.4372   -0.4514    0.0000 C   0  0  0  0  0  0  0  0  0  0  0  0
    2.4927   -1.0261    0.0000 N   0  0  0  0  0  0  0  0  0  0  0  0
    1.0205   -1.3134    0.0000 C   0  0  0  0  0  0  0  0  0  0  0  0
   -2.4216    0.6618    0.0000 C   0  0  0  0  0  0  0  0  0  0  0  0
   -3.8939    0.3744    0.0000 C   0  0  0  0  0  0  0  0  0  0  0  0
   -4.3811   -1.0442    0.0000 O   0  0  0  0  0  0  0  0  0  0  0  0
   -4.8788    1.5057    0.0000 O   0  0  0  0  0  0  0  0  0  0  0  0
  2  1  1  6
  2  3  1  0
  3  4  1  0
  4  5  2  0
  5  6  1  0
  6  7  1  0
  7  8  1  0
  6  9  2  0
  9 10  1  0
  2 11  1  0
 11 12  1  0
 12 13  2  0
 12 14  1  0
 10  3  2  0
M  END
>  <rName>  (1919) 
bAla_3Spyrid3yl_6OMe

>  <PQ_SYMBOL>  (1919) 
bAla_3Spyrid3yl_6OMe

>  <FULL_NAME>  (1919) 
(R)-3-amino-3-(6-methoxypyridin-3-yl)propanoic acid

>  <IUPAC_CONDENSED>  (1919) 
bAla(3S-pyrid-3-yl(6-OMe))

>  <IUPAC>  (1919) 
(3R)-3-amino-3-(6-methoxypyridin-3-yl)propanoic acid

>  <TYPE>  (1919) 
Backbone

>  <CLASS>  (1919) 
beta

>  <ANALOG>  (1919) 
X

>  <MOL_WT>  (1919) 
196.206

>  <LOGP>  (1919) 
0.5647

>  <TPSA>  (1919) 
85.44000000000001

>  <POPULARITY>  (1919) 
5.7

>  <PROTECTED>  (1919) 
TRUE

>  <SMILES>  (1919) 
N[C@@H](c1(ccc(OC)nc1))CC(=O)O

>  <INCHIKEY>  (1919) 
JWSDJSZHYFNBEN-SSDOTTSWSA-N

$$$$
NMe-Phe_3OMe
     RDKit          2D

 15 15  0  0  0  0  0  0  0  0999 V2000
   -2.1453    1.2953    0.0000 N   0  0  0  0  0  0  0  0  0  0  0  0
   -3.4799    1.9800    0.0000 C   0  0  0  0  0  0  0  0  0  0  0  0
   -2.0710   -0.2029    0.0000 C   0  0  0  0  0  0  0  0  0  0  0  0
   -0.7363   -0.8876    0.0000 C   0  0  0  0  0  0  0  0  0  0  0  0
    0.5239   -0.0741    0.0000 C   0  0  0  0  0  0  0  0  0  0  0  0
    0.4496    1.4240    0.0000 C   0  0  0  0  0  0  0  0  0  0  0  0
    1.7099    2.2375    0.0000 C   0  0  0  0  0  0  0  0  0  0  0  0
    3.0445    1.5528    0.0000 C   0  0  0  0  0  0  0  0  0  0  0  0
    3.1188    0.0546    0.0000 C   0  0  0  0  0  0  0  0  0  0  0  0
    4.4534   -0.6301    0.0000 O   0  0  0  0  0  0  0  0  0  0  0  0
    4.5278   -2.1282    0.0000 C   0  0  0  0  0  0  0  0  0  0  0  0
    1.8585   -0.7588    0.0000 C   0  0  0  0  0  0  0  0  0  0  0  0
   -3.3312   -1.0163    0.0000 C   0  0  0  0  0  0  0  0  0  0  0  0
   -3.2569   -2.5145    0.0000 O   0  0  0  0  0  0  0  0  0  0  0  0
   -4.6658   -0.3316    0.0000 O   0  0  0  0  0  0  0  0  0  0  0  0
  1  2  1  0
  1  3  1  0
  3  4  1  1
  4  5  1  0
  5  6  1  0
  6  7  2  0
  7  8  1  0
  8  9  2  0
  9 10  1  0
 10 11  1  0
  9 12  1  0
  3 13  1  0
 13 14  2  0
 13 15  1  0
 12  5  2  0
M  END
>  <rName>  (1920) 
NMe-Phe_3OMe

>  <PQ_SYMBOL>  (1920) 
NMe-Phe_3OMe

>  <FULL_NAME>  (1920) 
(S)-3-(3-methoxyphenyl)-2-(methylamino)propanoic acid

>  <IUPAC_CONDENSED>  (1920) 
Me-Phe(3-OMe)

>  <IUPAC>  (1920) 
(2S)-3-(3-methoxyphenyl)-2-(methylamino)propanoic acid

>  <TYPE>  (1920) 
Backbone

>  <CLASS>  (1920) 
alpha

>  <ANALOG>  (1920) 
Tyr

>  <MOL_WT>  (1920) 
209.24499999999998

>  <LOGP>  (1920) 
0.9102999999999997

>  <TPSA>  (1920) 
58.56

>  <POPULARITY>  (1920) 
9.5

>  <PROTECTED>  (1920) 
TRUE

>  <SMILES>  (1920) 
N(C)[C@@H](Cc1(cccc(OC)c1))C(=O)O

>  <INCHIKEY>  (1920) 
RNUIQGOLKGPNOE-JTQLQIEISA-N

$$$$
NMe-Asp_OMe
     RDKit          2D

 11 10  0  0  0  0  0  0  0  0999 V2000
   -2.2193    1.4694    0.0000 N   0  0  0  0  0  0  0  0  0  0  0  0
   -3.5902    0.8606    0.0000 C   0  0  0  0  0  0  0  0  0  0  0  0
   -1.0066    0.5867    0.0000 C   0  0  0  0  0  0  0  0  0  0  0  0
    0.3643    1.1955    0.0000 C   0  0  0  0  0  0  0  0  0  0  0  0
    1.5770    0.3128    0.0000 C   0  0  0  0  0  0  0  0  0  0  0  0
    1.4188   -1.1789    0.0000 O   0  0  0  0  0  0  0  0  0  0  0  0
    2.9479    0.9216    0.0000 O   0  0  0  0  0  0  0  0  0  0  0  0
    4.1606    0.0389    0.0000 C   0  0  0  0  0  0  0  0  0  0  0  0
   -1.1647   -0.9050    0.0000 C   0  0  0  0  0  0  0  0  0  0  0  0
   -2.5356   -1.5138    0.0000 O   0  0  0  0  0  0  0  0  0  0  0  0
    0.0480   -1.7877    0.0000 O   0  0  0  0  0  0  0  0  0  0  0  0
  1  2  1  0
  1  3  1  0
  3  4  1  1
  4  5  1  0
  5  6  2  0
  5  7  1  0
  7  8  1  0
  3  9  1  0
  9 10  2  0
  9 11  1  0
M  END
>  <rName>  (1921) 
NMe-Asp_OMe

>  <PQ_SYMBOL>  (1921) 
NMe-Asp_OMe

>  <FULL_NAME>  (1921) 
(S)-4-methoxy-2-(methylamino)-4-oxobutanoic acid

>  <IUPAC_CONDENSED>  (1921) 
Me-Asp(OMe)

>  <IUPAC>  (1921) 
(2S)-3-(methoxycarbonyl)-2-(methylamino)propanoic acid

>  <TYPE>  (1921) 
Backbone

>  <CLASS>  (1921) 
alpha

>  <ANALOG>  (1921) 
Asp

>  <MOL_WT>  (1921) 
161.15699999999998

>  <LOGP>  (1921) 
-0.7778999999999998

>  <TPSA>  (1921) 
75.63

>  <POPULARITY>  (1921) 
7.4

>  <PROTECTED>  (1921) 
TRUE

>  <SMILES>  (1921) 
N(C)[C@@H](CC(=O)OC)C(=O)O

>  <INCHIKEY>  (1921) 
BNXGGDPUVJSMJV-BYPYZUCNSA-N

$$$$
bAla_2ROH_3RPh_2OMe
     RDKit          2D

 15 15  0  0  0  0  0  0  0  0999 V2000
   -0.8095   -1.8533    0.0000 N   0  0  0  0  0  0  0  0  0  0  0  0
   -0.7163   -0.3562    0.0000 C   0  0  0  0  0  0  0  0  0  0  0  0
    0.6268    0.3117    0.0000 C   0  0  0  0  0  0  0  0  0  0  0  0
    0.7200    1.8088    0.0000 C   0  0  0  0  0  0  0  0  0  0  0  0
    2.0631    2.4766    0.0000 C   0  0  0  0  0  0  0  0  0  0  0  0
    3.3131    1.6473    0.0000 C   0  0  0  0  0  0  0  0  0  0  0  0
    3.2198    0.1502    0.0000 C   0  0  0  0  0  0  0  0  0  0  0  0
    1.8767   -0.5176    0.0000 C   0  0  0  0  0  0  0  0  0  0  0  0
    1.7835   -2.0147    0.0000 O   0  0  0  0  0  0  0  0  0  0  0  0
    3.0334   -2.8440    0.0000 C   0  0  0  0  0  0  0  0  0  0  0  0
   -1.9663    0.4731    0.0000 C   0  0  0  0  0  0  0  0  0  0  0  0
   -1.8731    1.9702    0.0000 O   0  0  0  0  0  0  0  0  0  0  0  0
   -3.3094   -0.1947    0.0000 C   0  0  0  0  0  0  0  0  0  0  0  0
   -3.4026   -1.6919    0.0000 O   0  0  0  0  0  0  0  0  0  0  0  0
   -4.5593    0.6345    0.0000 O   0  0  0  0  0  0  0  0  0  0  0  0
  2  1  1  1
  2  3  1  0
  3  4  2  0
  4  5  1  0
  5  6  2  0
  6  7  1  0
  7  8  2  0
  8  9  1  0
  9 10  1  0
  2 11  1  0
 11 12  1  6
 11 13  1  0
 13 14  2  0
 13 15  1  0
  8  3  1  0
M  END
>  <rName>  (1922) 
bAla_2ROH_3RPh_2OMe

>  <PQ_SYMBOL>  (1922) 
bAla_2ROH_3RPh_2OMe

>  <FULL_NAME>  (1922) 
(2R,3R)-3-amino-2-hydroxy-3-(2-methoxyphenyl)propanoic acid

>  <IUPAC_CONDENSED>  (1922) 
bAla(2R-OH,3R-Ph(2-OMe))

>  <IUPAC>  (1922) 
(2R,3R)-3-amino-2-hydroxy-3-(2-methoxyphenyl)propanoic acid

>  <TYPE>  (1922) 
Backbone

>  <CLASS>  (1922) 
beta

>  <ANALOG>  (1922) 
X

>  <MOL_WT>  (1922) 
211.21699999999998

>  <LOGP>  (1922) 
0.14050000000000007

>  <TPSA>  (1922) 
92.78000000000002

>  <POPULARITY>  (1922) 
3.2

>  <PROTECTED>  (1922) 
TRUE

>  <SMILES>  (1922) 
N[C@H](c1(ccccc1OC))[C@@H](O)C(=O)O

>  <INCHIKEY>  (1922) 
GVANXUOIKFVRKN-RKDXNWHRSA-N

$$$$
Phe_4POOMe2
     RDKit          2D

 19 19  0  0  0  0  0  0  0  0999 V2000
   -3.7809    1.6141    0.0000 N   0  0  0  0  0  0  0  0  0  0  0  0
   -3.9852    0.1281    0.0000 C   0  0  0  0  0  0  0  0  0  0  0  0
   -2.8004   -0.7918    0.0000 C   0  0  0  0  0  0  0  0  0  0  0  0
   -1.4113   -0.2258    0.0000 C   0  0  0  0  0  0  0  0  0  0  0  0
   -1.2070    1.2603    0.0000 C   0  0  0  0  0  0  0  0  0  0  0  0
    0.1821    1.8263    0.0000 C   0  0  0  0  0  0  0  0  0  0  0  0
    1.3669    0.9064    0.0000 C   0  0  0  0  0  0  0  0  0  0  0  0
    2.7559    1.4725    0.0000 O   0  0  0  0  0  0  0  0  0  0  0  0
    3.9407    0.5525    0.0000 P   0  0  0  0  0  0  0  0  0  0  0  0
    4.8607    1.7373    0.0000 O   0  0  0  0  0  0  0  0  0  0  0  0
    3.0208   -0.6323    0.0000 O   0  0  0  0  0  0  0  0  0  0  0  0
    3.5869   -2.0213    0.0000 C   0  0  0  0  0  0  0  0  0  0  0  0
    5.1255   -0.3674    0.0000 O   0  0  0  0  0  0  0  0  0  0  0  0
    4.9212   -1.8534    0.0000 C   0  0  0  0  0  0  0  0  0  0  0  0
    1.1626   -0.5796    0.0000 C   0  0  0  0  0  0  0  0  0  0  0  0
   -0.2265   -1.1457    0.0000 C   0  0  0  0  0  0  0  0  0  0  0  0
   -5.3743   -0.4380    0.0000 C   0  0  0  0  0  0  0  0  0  0  0  0
   -5.5786   -1.9240    0.0000 O   0  0  0  0  0  0  0  0  0  0  0  0
   -6.5590    0.4820    0.0000 O   0  0  0  0  0  0  0  0  0  0  0  0
  2  1  1  1
  2  3  1  0
  3  4  1  0
  4  5  1  0
  5  6  2  0
  6  7  1  0
  7  8  1  0
  8  9  1  0
  9 10  2  0
  9 11  1  0
 11 12  1  0
  9 13  1  0
 13 14  1  0
  7 15  2  0
 15 16  1  0
  2 17  1  0
 17 18  2  0
 17 19  1  0
 16  4  2  0
M  END
>  <rName>  (1923) 
Phe_4POOMe2

>  <PQ_SYMBOL>  (1923) 
Phe_4POOMe2

>  <FULL_NAME>  (1923) 
(S)-2-amino-3-(4-((dimethoxyphosphoryl)oxy)phenyl)propanoic acid

>  <IUPAC_CONDENSED>  (1923) 
Phe(4-PO(OMe)2)

>  <IUPAC>  (1923) 
(2S)-2-amino-3-(4-((dimethoxyphosphoryl)oxy)phenyl)propanoic acid

>  <TYPE>  (1923) 
Backbone

>  <CLASS>  (1923) 
alpha

>  <ANALOG>  (1923) 
Tyr

>  <MOL_WT>  (1923) 
289.224

>  <LOGP>  (1923) 
1.4207

>  <TPSA>  (1923) 
108.08

>  <POPULARITY>  (1923) 
7.2

>  <PROTECTED>  (1923) 
TRUE

>  <SMILES>  (1923) 
N[C@@H](Cc1(ccc(OP(=O)(OC)OC)cc1))C(=O)O

>  <INCHIKEY>  (1923) 
HESLJQBDDBJJQQ-JTQLQIEISA-N

$$$$
3-amino-47-dioxo-octahydropyrrolo32-cpyridine3S3aS6S7aS-6-CH2CO2H
     RDKit          2D

 16 17  0  0  0  0  0  0  0  0999 V2000
    0.1327    1.9408    0.0000 N   0  0  0  0  0  0  0  0  0  0  0  0
    1.1510    0.8395    0.0000 C   0  0  0  0  0  0  0  0  0  0  0  0
    0.7063   -0.5931    0.0000 C   0  0  0  0  0  0  0  0  0  0  0  0
    1.7246   -1.6945    0.0000 O   0  0  0  0  0  0  0  0  0  0  0  0
   -0.7567   -0.9243    0.0000 C   0  0  0  0  0  0  0  0  0  0  0  0
   -1.4894   -2.2331    0.0000 N   0  0  0  0  0  0  0  0  0  0  0  0
   -2.9607   -1.9407    0.0000 C   0  0  0  0  0  0  0  0  0  0  0  0
   -3.1371   -0.4511    0.0000 C   0  0  0  0  0  0  0  0  0  0  0  0
   -4.4459    0.2817    0.0000 N   0  0  0  0  0  0  0  0  0  0  0  0
   -1.7750    0.1771    0.0000 C   0  0  0  0  0  0  0  0  0  0  0  0
   -1.3303    1.6096    0.0000 C   0  0  0  0  0  0  0  0  0  0  0  0
   -2.3486    2.7110    0.0000 O   0  0  0  0  0  0  0  0  0  0  0  0
    2.6140    1.1707    0.0000 C   0  0  0  0  0  0  0  0  0  0  0  0
    3.6323    0.0693    0.0000 C   0  0  0  0  0  0  0  0  0  0  0  0
    3.1876   -1.3633    0.0000 O   0  0  0  0  0  0  0  0  0  0  0  0
    5.0953    0.4005    0.0000 O   0  0  0  0  0  0  0  0  0  0  0  0
  1  2  1  0
  2  3  1  0
  3  4  2  0
  3  5  1  0
  5  6  1  1
  6  7  1  0
  7  8  1  0
  8  9  1  1
  8 10  1  0
 10 11  1  6
 11 12  2  0
  2 13  1  1
 13 14  1  0
 14 15  2  0
 14 16  1  0
 10  5  1  0
 11  1  1  0
M  END
>  <rName>  (1924) 
3-amino-47-dioxo-octahydropyrrolo32-cpyridine3S3aS6S7aS-6-CH2CO2H

>  <PQ_SYMBOL>  (1924) 
3-amino-47-dioxo-octahydropyrrolo32-cpyridine3S3aS6S7aS-6-CH2CO2H

>  <FULL_NAME>  (1924) 
2-((3S,3aS,6S,7aS)-3-amino-4,7-dioxooctahydro-1H-pyrrolo[3,2-c]pyridin-6-yl)acetic acid

>  <IUPAC_CONDENSED>  (1924) 
3-amino-4,7-dioxo-octahydropyrrolo[3,2-c]pyridine(3S,3aS,6S,7aS)-6-CH2CO2H

>  <IUPAC>  (1924) 
2-((1S,4S,6S,9S)-9-amino-2,5-dioxo-3,7-diazabicyclo[4.3.0]nonan-4-yl)acetic acid

>  <TYPE>  (1924) 
Backbone

>  <CLASS>  (1924) 
beta

>  <ANALOG>  (1924) 
X

>  <MOL_WT>  (1924) 
227.22

>  <LOGP>  (1924) 
-2.556099999999997

>  <TPSA>  (1924) 
121.52

>  <POPULARITY>  (1924) 
3.7

>  <PROTECTED>  (1924) 
TRUE

>  <SMILES>  (1924) 
N2[C@H](C(=O)[C@H]1(NC[C@@H](N)[C@@H]1C2=O))CC(=O)O

>  <INCHIKEY>  (1924) 
VNXMBHCKFNDMEK-HBGVPEAKSA-N

$$$$
D-Phe_4POOMe2
     RDKit          2D

 19 19  0  0  0  0  0  0  0  0999 V2000
   -3.7809    1.6141    0.0000 N   0  0  0  0  0  0  0  0  0  0  0  0
   -3.9852    0.1281    0.0000 C   0  0  0  0  0  0  0  0  0  0  0  0
   -2.8004   -0.7918    0.0000 C   0  0  0  0  0  0  0  0  0  0  0  0
   -1.4113   -0.2258    0.0000 C   0  0  0  0  0  0  0  0  0  0  0  0
   -1.2070    1.2603    0.0000 C   0  0  0  0  0  0  0  0  0  0  0  0
    0.1821    1.8263    0.0000 C   0  0  0  0  0  0  0  0  0  0  0  0
    1.3669    0.9064    0.0000 C   0  0  0  0  0  0  0  0  0  0  0  0
    2.7559    1.4725    0.0000 O   0  0  0  0  0  0  0  0  0  0  0  0
    3.9407    0.5525    0.0000 P   0  0  0  0  0  0  0  0  0  0  0  0
    4.8607    1.7373    0.0000 O   0  0  0  0  0  0  0  0  0  0  0  0
    3.0208   -0.6323    0.0000 O   0  0  0  0  0  0  0  0  0  0  0  0
    3.5869   -2.0213    0.0000 C   0  0  0  0  0  0  0  0  0  0  0  0
    5.1255   -0.3674    0.0000 O   0  0  0  0  0  0  0  0  0  0  0  0
    4.9212   -1.8534    0.0000 C   0  0  0  0  0  0  0  0  0  0  0  0
    1.1626   -0.5796    0.0000 C   0  0  0  0  0  0  0  0  0  0  0  0
   -0.2265   -1.1457    0.0000 C   0  0  0  0  0  0  0  0  0  0  0  0
   -5.3743   -0.4380    0.0000 C   0  0  0  0  0  0  0  0  0  0  0  0
   -5.5786   -1.9240    0.0000 O   0  0  0  0  0  0  0  0  0  0  0  0
   -6.5590    0.4820    0.0000 O   0  0  0  0  0  0  0  0  0  0  0  0
  2  1  1  6
  2  3  1  0
  3  4  1  0
  4  5  1  0
  5  6  2  0
  6  7  1  0
  7  8  1  0
  8  9  1  0
  9 10  2  0
  9 11  1  0
 11 12  1  0
  9 13  1  0
 13 14  1  0
  7 15  2  0
 15 16  1  0
  2 17  1  0
 17 18  2  0
 17 19  1  0
 16  4  2  0
M  END
>  <rName>  (1925) 
D-Phe_4POOMe2

>  <PQ_SYMBOL>  (1925) 
D-Phe_4POOMe2

>  <FULL_NAME>  (1925) 
(R)-2-amino-3-(4-((dimethoxyphosphoryl)oxy)phenyl)propanoic acid

>  <IUPAC_CONDENSED>  (1925) 
D-Phe(4-PO(OMe)2)

>  <IUPAC>  (1925) 
(2R)-2-amino-3-(4-((dimethoxyphosphoryl)oxy)phenyl)propanoic acid

>  <TYPE>  (1925) 
Backbone

>  <CLASS>  (1925) 
alpha

>  <ANALOG>  (1925) 
Tyr

>  <MOL_WT>  (1925) 
289.224

>  <LOGP>  (1925) 
1.4207

>  <TPSA>  (1925) 
108.08

>  <POPULARITY>  (1925) 
4.5

>  <PROTECTED>  (1925) 
TRUE

>  <SMILES>  (1925) 
N[C@H](Cc1(ccc(OP(=O)(OC)OC)cc1))C(=O)O

>  <INCHIKEY>  (1925) 
HESLJQBDDBJJQQ-SNVBAGLBSA-N

$$$$
aBuNH2Gaba
     RDKit          2D

 12 11  0  0  0  0  0  0  0  0999 V2000
   -0.1554    1.8810    0.0000 N   0  0  0  0  0  0  0  0  0  0  0  0
   -0.2042    0.3818    0.0000 C   0  0  0  0  0  0  0  0  0  0  0  0
    1.0698   -0.4100    0.0000 C   0  0  0  0  0  0  0  0  0  0  0  0
    2.3925    0.2974    0.0000 C   0  0  0  0  0  0  0  0  0  0  0  0
    3.6665   -0.4944    0.0000 C   0  0  0  0  0  0  0  0  0  0  0  0
    4.9892    0.2129    0.0000 C   0  0  0  0  0  0  0  0  0  0  0  0
    6.2632   -0.5789    0.0000 N   0  0  0  0  0  0  0  0  0  0  0  0
   -1.5269   -0.3255    0.0000 C   0  0  0  0  0  0  0  0  0  0  0  0
   -2.8009    0.4663    0.0000 C   0  0  0  0  0  0  0  0  0  0  0  0
   -4.1236   -0.2411    0.0000 C   0  0  0  0  0  0  0  0  0  0  0  0
   -4.1724   -1.7403    0.0000 O   0  0  0  0  0  0  0  0  0  0  0  0
   -5.3976    0.5507    0.0000 O   0  0  0  0  0  0  0  0  0  0  0  0
  2  1  1  1
  2  3  1  0
  3  4  1  0
  4  5  1  0
  5  6  1  0
  6  7  1  0
  2  8  1  0
  8  9  1  0
  9 10  1  0
 10 11  2  0
 10 12  1  0
M  END
>  <rName>  (1926) 
aBuNH2Gaba

>  <PQ_SYMBOL>  (1926) 
aBuNH2Gaba

>  <FULL_NAME>  (1926) 
(S)-4,8-diaminooctanoic acid

>  <IUPAC_CONDENSED>  (1926) 
aBuNH2Gaba

>  <IUPAC>  (1926) 
(4S)-4,8-diaminooctanoic acid

>  <TYPE>  (1926) 
Backbone

>  <CLASS>  (1926) 
gamma

>  <ANALOG>  (1926) 
Lys

>  <MOL_WT>  (1926) 
174.244

>  <LOGP>  (1926) 
0.30749999999999944

>  <TPSA>  (1926) 
89.34

>  <POPULARITY>  (1926) 
7.6

>  <PROTECTED>  (1926) 
TRUE

>  <SMILES>  (1926) 
N[C@@H](CCCCN)CCC(=O)O

>  <INCHIKEY>  (1926) 
PJBIRKFNLCOMSB-ZETCQYMHSA-N

$$$$
2-amino-Ac5c_1S_2R
     RDKit          2D

  9  9  0  0  0  0  0  0  0  0999 V2000
   -0.5115   -2.3139    0.0000 N   0  0  0  0  0  0  0  0  0  0  0  0
   -0.8624   -0.8555    0.0000 C   0  0  0  0  0  0  0  0  0  0  0  0
    0.1113    0.2855    0.0000 C   0  0  0  0  0  0  0  0  0  0  0  0
   -0.6730    1.5641    0.0000 C   0  0  0  0  0  0  0  0  0  0  0  0
   -2.1314    1.2133    0.0000 C   0  0  0  0  0  0  0  0  0  0  0  0
   -2.2485   -0.2821    0.0000 C   0  0  0  0  0  0  0  0  0  0  0  0
    1.6067    0.1685    0.0000 C   0  0  0  0  0  0  0  0  0  0  0  0
    2.4558    1.4051    0.0000 O   0  0  0  0  0  0  0  0  0  0  0  0
    2.2531   -1.1851    0.0000 O   0  0  0  0  0  0  0  0  0  0  0  0
  2  1  1  6
  2  3  1  0
  3  4  1  0
  4  5  1  0
  5  6  1  0
  3  7  1  6
  7  8  2  0
  7  9  1  0
  6  2  1  0
M  END
>  <rName>  (1927) 
2-amino-Ac5c_1S_2R

>  <PQ_SYMBOL>  (1927) 
2-amino-Ac5c_1S_2R

>  <FULL_NAME>  (1927) 
(1S,2R)-2-aminocyclopentane-1-carboxylic acid

>  <IUPAC_CONDENSED>  (1927) 
2-amino-Ac5c(1S,2R)

>  <IUPAC>  (1927) 
(1S,2R)-2-aminocyclopentanecarboxylic acid

>  <TYPE>  (1927) 
Backbone

>  <CLASS>  (1927) 
beta

>  <ANALOG>  (1927) 
Val

>  <MOL_WT>  (1927) 
129.15900000000002

>  <LOGP>  (1927) 
0.19839999999999985

>  <TPSA>  (1927) 
63.32000000000001

>  <POPULARITY>  (1927) 
8.9

>  <PROTECTED>  (1927) 
TRUE

>  <SMILES>  (1927) 
N[C@H]1[C@H](CCC1)C(=O)O

>  <INCHIKEY>  (1927) 
JWYOAMOZLZXDER-CRCLSJGQSA-N

$$$$
D-SeMet
     RDKit          2D

  9  8  0  0  0  0  0  0  0  0999 V2000
    0.7616   -1.8791    0.0000 N   0  0  0  0  0  0  0  0  0  0  0  0
    0.8459   -0.3815    0.0000 C   0  0  0  0  0  0  0  0  0  0  0  0
   -0.4089    0.4403    0.0000 C   0  0  0  0  0  0  0  0  0  0  0  0
   -1.7480   -0.2354    0.0000 C   0  0  0  0  0  0  0  0  0  0  0  0
   -3.0029    0.5864    0.0000 Se  0  0  0  0  0  2  0  0  0  0  0  0
   -4.3420   -0.0894    0.0000 C   0  0  0  0  0  0  0  0  0  0  0  0
    2.1851    0.2943    0.0000 C   0  0  0  0  0  0  0  0  0  0  0  0
    2.2694    1.7919    0.0000 O   0  0  0  0  0  0  0  0  0  0  0  0
    3.4399   -0.5275    0.0000 O   0  0  0  0  0  0  0  0  0  0  0  0
  2  1  1  6
  2  3  1  0
  3  4  1  0
  4  5  1  0
  5  6  1  0
  2  7  1  0
  7  8  2  0
  7  9  1  0
M  END
>  <rName>  (1928) 
D-SeMet

>  <PQ_SYMBOL>  (1928) 
D-SeMet

>  <FULL_NAME>  (1928) 
(R)-2-amino-4-(methylselanyl)butanoic acid

>  <IUPAC_CONDENSED>  (1928) 
D-SeMet

>  <IUPAC>  (1928) 
(2R)-2-amino-4-(methylselanyl)butanoic acid

>  <TYPE>  (1928) 
Backbone

>  <CLASS>  (1928) 
alpha

>  <ANALOG>  (1928) 
Met

>  <MOL_WT>  (1928) 
196.10799999999998

>  <LOGP>  (1928) 
-0.041000000000000425

>  <TPSA>  (1928) 
63.32000000000001

>  <POPULARITY>  (1928) 
3.2

>  <PROTECTED>  (1928) 
TRUE

>  <SMILES>  (1928) 
N[C@H](CC[Se]C)C(=O)O

>  <INCHIKEY>  (1928) 
RJFAYQIBOAGBLC-SCSAIBSYSA-N

$$$$
D-hSec
     RDKit          2D

  8  7  0  0  0  0  0  0  0  0999 V2000
   -0.2517   -1.8862    0.0000 N   0  0  0  0  0  0  0  0  0  0  0  0
   -0.3100   -0.3873    0.0000 C   0  0  0  0  0  0  0  0  0  0  0  0
    0.9590    0.4126    0.0000 C   0  0  0  0  0  0  0  0  0  0  0  0
    2.2862   -0.2864    0.0000 C   0  0  0  0  0  0  0  0  0  0  0  0
    3.5551    0.5134    0.0000 Se  0  0  0  0  0  2  0  0  0  0  0  0
   -1.6371    0.3117    0.0000 C   0  0  0  0  0  0  0  0  0  0  0  0
   -1.6954    1.8105    0.0000 O   0  0  0  0  0  0  0  0  0  0  0  0
   -2.9061   -0.4882    0.0000 O   0  0  0  0  0  0  0  0  0  0  0  0
  2  1  1  1
  2  3  1  0
  3  4  1  0
  4  5  1  0
  2  6  1  0
  6  7  2  0
  6  8  1  0
M  END
>  <rName>  (1929) 
D-hSec

>  <PQ_SYMBOL>  (1929) 
D-hSec

>  <FULL_NAME>  (1929) 
(R)-2-amino-4-hydroselenobutanoic acid

>  <IUPAC_CONDENSED>  (1929) 
D-hSec

>  <IUPAC>  (1929) 
(2R)-2-amino-4-selanylbutanoic acid

>  <TYPE>  (1929) 
Backbone

>  <CLASS>  (1929) 
alpha

>  <ANALOG>  (1929) 
Cys

>  <MOL_WT>  (1929) 
182.081

>  <LOGP>  (1929) 
-0.8925000000000003

>  <TPSA>  (1929) 
63.32000000000001

>  <POPULARITY>  (1929) 
2.7

>  <PROTECTED>  (1929) 
TRUE

>  <SMILES>  (1929) 
N[C@H](CC[SeH])C(=O)O

>  <INCHIKEY>  (1929) 
RCWCGLALNCIQNM-GSVOUGTGSA-N

$$$$
Sec_Me
     RDKit          2D

  8  7  0  0  0  0  0  0  0  0999 V2000
   -0.2517   -1.8862    0.0000 N   0  0  0  0  0  0  0  0  0  0  0  0
   -0.3100   -0.3873    0.0000 C   0  0  0  0  0  0  0  0  0  0  0  0
    0.9590    0.4126    0.0000 C   0  0  0  0  0  0  0  0  0  0  0  0
    2.2862   -0.2864    0.0000 Se  0  0  0  0  0  2  0  0  0  0  0  0
    3.5551    0.5134    0.0000 C   0  0  0  0  0  0  0  0  0  0  0  0
   -1.6371    0.3117    0.0000 C   0  0  0  0  0  0  0  0  0  0  0  0
   -1.6954    1.8105    0.0000 O   0  0  0  0  0  0  0  0  0  0  0  0
   -2.9061   -0.4882    0.0000 O   0  0  0  0  0  0  0  0  0  0  0  0
  2  1  1  6
  2  3  1  0
  3  4  1  0
  4  5  1  0
  2  6  1  0
  6  7  2  0
  6  8  1  0
M  END
>  <rName>  (1930) 
Sec_Me

>  <PQ_SYMBOL>  (1930) 
Sec_Me

>  <FULL_NAME>  (1930) 
(R)-2-amino-3-(methylselanyl)propanoic acid

>  <IUPAC_CONDENSED>  (1930) 
Sec(Me)

>  <IUPAC>  (1930) 
(2R)-2-amino-3-(methylselanyl)propanoic acid

>  <TYPE>  (1930) 
Backbone

>  <CLASS>  (1930) 
alpha

>  <ANALOG>  (1930) 
Cys

>  <MOL_WT>  (1930) 
182.081

>  <LOGP>  (1930) 
-0.4311000000000003

>  <TPSA>  (1930) 
63.32000000000001

>  <POPULARITY>  (1930) 
5.1

>  <PROTECTED>  (1930) 
TRUE

>  <SMILES>  (1930) 
N[C@@H](C[Se]C)C(=O)O

>  <INCHIKEY>  (1930) 
XDSSPSLGNGIIHP-VKHMYHEASA-N

$$$$
bAla_3Ph_4Br
     RDKit          2D

 13 13  0  0  0  0  0  0  0  0999 V2000
   -1.5598   -1.8792    0.0000 N   0  0  0  0  0  0  0  0  0  0  0  0
   -1.0324   -0.4750    0.0000 C   0  0  0  0  0  0  0  0  0  0  0  0
    0.4474   -0.2297    0.0000 C   0  0  0  0  0  0  0  0  0  0  0  0
    0.9749    1.1745    0.0000 C   0  0  0  0  0  0  0  0  0  0  0  0
    2.4547    1.4199    0.0000 C   0  0  0  0  0  0  0  0  0  0  0  0
    3.4070    0.2610    0.0000 C   0  0  0  0  0  0  0  0  0  0  0  0
    4.8868    0.5063    0.0000 Br  0  0  0  0  0  0  0  0  0  0  0  0
    2.8796   -1.1432    0.0000 C   0  0  0  0  0  0  0  0  0  0  0  0
    1.3998   -1.3886    0.0000 C   0  0  0  0  0  0  0  0  0  0  0  0
   -1.9847    0.6838    0.0000 C   0  0  0  0  0  0  0  0  0  0  0  0
   -3.4645    0.4385    0.0000 C   0  0  0  0  0  0  0  0  0  0  0  0
   -3.9920   -0.9657    0.0000 O   0  0  0  0  0  0  0  0  0  0  0  0
   -4.4169    1.5974    0.0000 O   0  0  0  0  0  0  0  0  0  0  0  0
  1  2  1  0
  2  3  1  0
  3  4  1  0
  4  5  2  0
  5  6  1  0
  6  7  1  0
  6  8  2  0
  8  9  1  0
  2 10  1  0
 10 11  1  0
 11 12  2  0
 11 13  1  0
  9  3  2  0
M  END
>  <rName>  (1931) 
bAla_3Ph_4Br

>  <PQ_SYMBOL>  (1931) 
bAla_3Ph_4Br

>  <FULL_NAME>  (1931) 
3-amino-3-(4-bromophenyl)propanoic acid

>  <IUPAC_CONDENSED>  (1931) 
bAla(3-Ph(4-Br))

>  <IUPAC>  (1931) 
3-amino-3-(4-bromophenyl)propanoic acid

>  <TYPE>  (1931) 
Backbone

>  <CLASS>  (1931) 
beta

>  <ANALOG>  (1931) 
X

>  <MOL_WT>  (1931) 
244.08799999999997

>  <LOGP>  (1931) 
1.9236

>  <TPSA>  (1931) 
63.32000000000001

>  <POPULARITY>  (1931) 
8.5

>  <PROTECTED>  (1931) 
TRUE

>  <SMILES>  (1931) 
NC(c1(ccc(Br)cc1))CC(=O)O

>  <INCHIKEY>  (1931) 
RBOUYDUXPMAYMJ-UHFFFAOYSA-N

$$$$
bAla_3Ph_2Me
     RDKit          2D

 13 13  0  0  0  0  0  0  0  0999 V2000
   -1.0916   -1.7365    0.0000 N   0  0  0  0  0  0  0  0  0  0  0  0
   -0.6994   -0.2887    0.0000 C   0  0  0  0  0  0  0  0  0  0  0  0
    0.7506    0.0955    0.0000 C   0  0  0  0  0  0  0  0  0  0  0  0
    1.1428    1.5433    0.0000 C   0  0  0  0  0  0  0  0  0  0  0  0
    2.5927    1.9276    0.0000 C   0  0  0  0  0  0  0  0  0  0  0  0
    3.6505    0.8640    0.0000 C   0  0  0  0  0  0  0  0  0  0  0  0
    3.2583   -0.5838    0.0000 C   0  0  0  0  0  0  0  0  0  0  0  0
    1.8083   -0.9680    0.0000 C   0  0  0  0  0  0  0  0  0  0  0  0
    1.4161   -2.4159    0.0000 C   0  0  0  0  0  0  0  0  0  0  0  0
   -1.7571    0.7749    0.0000 C   0  0  0  0  0  0  0  0  0  0  0  0
   -3.2071    0.3906    0.0000 C   0  0  0  0  0  0  0  0  0  0  0  0
   -3.5993   -1.0572    0.0000 O   0  0  0  0  0  0  0  0  0  0  0  0
   -4.2648    1.4542    0.0000 O   0  0  0  0  0  0  0  0  0  0  0  0
  1  2  1  0
  2  3  1  0
  3  4  2  0
  4  5  1  0
  5  6  2  0
  6  7  1  0
  7  8  2  0
  8  9  1  0
  2 10  1  0
 10 11  1  0
 11 12  2  0
 11 13  1  0
  8  3  1  0
M  END
>  <rName>  (1932) 
bAla_3Ph_2Me

>  <PQ_SYMBOL>  (1932) 
bAla_3Ph_2Me

>  <FULL_NAME>  (1932) 
3-amino-3-(o-tolyl)propanoic acid

>  <IUPAC_CONDENSED>  (1932) 
bAla(3-Ph(2-Me))

>  <IUPAC>  (1932) 
3-amino-3-(2-methylphenyl)propanoic acid

>  <TYPE>  (1932) 
Backbone

>  <CLASS>  (1932) 
beta

>  <ANALOG>  (1932) 
X

>  <MOL_WT>  (1932) 
179.21899999999997

>  <LOGP>  (1932) 
1.4695200000000002

>  <TPSA>  (1932) 
63.32000000000001

>  <POPULARITY>  (1932) 
10.5

>  <PROTECTED>  (1932) 
TRUE

>  <SMILES>  (1932) 
NC(c1(ccccc1C))CC(=O)O

>  <INCHIKEY>  (1932) 
GORGZFRGYDIRJA-UHFFFAOYSA-N

$$$$
bAla_3Ph_2Br
     RDKit          2D

 13 13  0  0  0  0  0  0  0  0999 V2000
   -1.0916   -1.7365    0.0000 N   0  0  0  0  0  0  0  0  0  0  0  0
   -0.6994   -0.2887    0.0000 C   0  0  0  0  0  0  0  0  0  0  0  0
    0.7506    0.0955    0.0000 C   0  0  0  0  0  0  0  0  0  0  0  0
    1.1428    1.5433    0.0000 C   0  0  0  0  0  0  0  0  0  0  0  0
    2.5927    1.9276    0.0000 C   0  0  0  0  0  0  0  0  0  0  0  0
    3.6505    0.8640    0.0000 C   0  0  0  0  0  0  0  0  0  0  0  0
    3.2583   -0.5838    0.0000 C   0  0  0  0  0  0  0  0  0  0  0  0
    1.8083   -0.9680    0.0000 C   0  0  0  0  0  0  0  0  0  0  0  0
    1.4161   -2.4159    0.0000 Br  0  0  0  0  0  0  0  0  0  0  0  0
   -1.7571    0.7749    0.0000 C   0  0  0  0  0  0  0  0  0  0  0  0
   -3.2071    0.3906    0.0000 C   0  0  0  0  0  0  0  0  0  0  0  0
   -3.5993   -1.0572    0.0000 O   0  0  0  0  0  0  0  0  0  0  0  0
   -4.2648    1.4542    0.0000 O   0  0  0  0  0  0  0  0  0  0  0  0
  1  2  1  0
  2  3  1  0
  3  4  2  0
  4  5  1  0
  5  6  2  0
  6  7  1  0
  7  8  2  0
  8  9  1  0
  2 10  1  0
 10 11  1  0
 11 12  2  0
 11 13  1  0
  8  3  1  0
M  END
>  <rName>  (1933) 
bAla_3Ph_2Br

>  <PQ_SYMBOL>  (1933) 
bAla_3Ph_2Br

>  <FULL_NAME>  (1933) 
3-amino-3-(2-bromophenyl)propanoic acid

>  <IUPAC_CONDENSED>  (1933) 
bAla(3-Ph(2-Br))

>  <IUPAC>  (1933) 
3-amino-3-(2-bromophenyl)propanoic acid

>  <TYPE>  (1933) 
Backbone

>  <CLASS>  (1933) 
beta

>  <ANALOG>  (1933) 
X

>  <MOL_WT>  (1933) 
244.08799999999997

>  <LOGP>  (1933) 
1.9236

>  <TPSA>  (1933) 
63.32000000000001

>  <POPULARITY>  (1933) 
6.8

>  <PROTECTED>  (1933) 
TRUE

>  <SMILES>  (1933) 
NC(c1(ccccc1Br))CC(=O)O

>  <INCHIKEY>  (1933) 
OETRFEPZCAGEMK-UHFFFAOYSA-N

$$$$
Phe-Gly-Gly
     RDKit          2D

 20 20  0  0  0  0  0  0  0  0999 V2000
   -4.6597   -0.2482    0.0000 N   0  0  0  0  0  0  0  0  0  0  0  0
   -3.2922    0.3683    0.0000 C   0  0  0  0  0  0  0  0  0  0  0  0
   -3.1424    1.8608    0.0000 O   0  0  0  0  0  0  0  0  0  0  0  0
   -2.0746   -0.5078    0.0000 C   0  0  0  0  0  0  0  0  0  0  0  0
   -0.7071    0.1087    0.0000 N   0  0  0  0  0  0  0  0  0  0  0  0
    0.5105   -0.7673    0.0000 C   0  0  0  0  0  0  0  0  0  0  0  0
    0.3606   -2.2598    0.0000 O   0  0  0  0  0  0  0  0  0  0  0  0
    1.8779   -0.1509    0.0000 C   0  0  0  0  0  0  0  0  0  0  0  0
    2.0278    1.3416    0.0000 N   0  0  0  0  0  0  0  0  0  0  0  0
    3.0955   -1.0269    0.0000 C   0  0  0  0  0  0  0  0  0  0  0  0
    4.4630   -0.4105    0.0000 C   0  0  0  0  0  0  0  0  0  0  0  0
    4.6129    1.0820    0.0000 C   0  0  0  0  0  0  0  0  0  0  0  0
    5.9803    1.6985    0.0000 C   0  0  0  0  0  0  0  0  0  0  0  0
    7.1979    0.8224    0.0000 C   0  0  0  0  0  0  0  0  0  0  0  0
    7.0481   -0.6701    0.0000 C   0  0  0  0  0  0  0  0  0  0  0  0
    5.6806   -1.2865    0.0000 C   0  0  0  0  0  0  0  0  0  0  0  0
   -5.8773    0.6279    0.0000 C   0  0  0  0  0  0  0  0  0  0  0  0
   -7.2448    0.0114    0.0000 C   0  0  0  0  0  0  0  0  0  0  0  0
   -7.3946   -1.4811    0.0000 O   0  0  0  0  0  0  0  0  0  0  0  0
   -8.4624    0.8875    0.0000 O   0  0  0  0  0  0  0  0  0  0  0  0
  1  2  1  0
  2  3  2  0
  2  4  1  0
  4  5  1  0
  5  6  1  0
  6  7  2  0
  6  8  1  0
  8  9  1  1
  8 10  1  0
 10 11  1  0
 11 12  2  0
 12 13  1  0
 13 14  2  0
 14 15  1  0
 15 16  2  0
  1 17  1  0
 17 18  1  0
 18 19  2  0
 18 20  1  0
 16 11  1  0
M  END
>  <rName>  (1934) 
Phe-Gly-Gly

>  <PQ_SYMBOL>  (1934) 
Phe-Gly-Gly

>  <FULL_NAME>  (1934) 
L-phenylalanylglycylglycine

>  <IUPAC_CONDENSED>  (1934) 
Phe-Gly-Gly

>  <IUPAC>  (1934) 
2-((1S)-1-amino-2-phenylethylcarbonylaminomethylcarbonylamino)acetic acid

>  <TYPE>  (1934) 
Backbone

>  <CLASS>  (1934) 
alpha

>  <ANALOG>  (1934) 
Gly

>  <MOL_WT>  (1934) 
279.296

>  <LOGP>  (1934) 
-1.1265999999999983

>  <TPSA>  (1934) 
121.52

>  <POPULARITY>  (1934) 
14.1

>  <PROTECTED>  (1934) 
TRUE

>  <SMILES>  (1934) 
N(C(=O)CNC(=O)[C@@H](N)Cc1(ccccc1))CC(=O)O

>  <INCHIKEY>  (1934) 
NAXPHWZXEXNDIW-JTQLQIEISA-N

$$$$
Ile-Gly
     RDKit          2D

 13 12  0  0  0  0  0  0  0  0999 V2000
    1.0748    0.4198    0.0000 N   0  0  0  0  0  0  0  0  0  0  0  0
   -0.3224   -0.1259    0.0000 C   0  0  0  0  0  0  0  0  0  0  0  0
   -0.5484   -1.6088    0.0000 O   0  0  0  0  0  0  0  0  0  0  0  0
   -1.4936    0.8112    0.0000 C   0  0  0  0  0  0  0  0  0  0  0  0
   -1.2676    2.2941    0.0000 N   0  0  0  0  0  0  0  0  0  0  0  0
   -2.8908    0.2655    0.0000 C   0  0  0  0  0  0  0  0  0  0  0  0
   -4.0620    1.2027    0.0000 C   0  0  0  0  0  0  0  0  0  0  0  0
   -3.1169   -1.2173    0.0000 C   0  0  0  0  0  0  0  0  0  0  0  0
   -1.9457   -2.1545    0.0000 C   0  0  0  0  0  0  0  0  0  0  0  0
    2.2460   -0.5174    0.0000 C   0  0  0  0  0  0  0  0  0  0  0  0
    3.6432    0.0283    0.0000 C   0  0  0  0  0  0  0  0  0  0  0  0
    3.8692    1.5112    0.0000 O   0  0  0  0  0  0  0  0  0  0  0  0
    4.8144   -0.9089    0.0000 O   0  0  0  0  0  0  0  0  0  0  0  0
  1  2  1  0
  2  3  2  0
  2  4  1  0
  4  5  1  6
  4  6  1  0
  6  7  1  6
  6  8  1  0
  8  9  1  0
  1 10  1  0
 10 11  1  0
 11 12  2  0
 11 13  1  0
M  END
>  <rName>  (1935) 
Ile-Gly

>  <PQ_SYMBOL>  (1935) 
Ile-Gly

>  <FULL_NAME>  (1935) 
L-isoleucylglycine

>  <IUPAC_CONDENSED>  (1935) 
Ile-Gly

>  <IUPAC>  (1935) 
2-((1S,2S)-1-amino-2-methylbutylcarbonylamino)acetic acid

>  <TYPE>  (1935) 
Backbone

>  <CLASS>  (1935) 
alpha

>  <ANALOG>  (1935) 
Gly

>  <MOL_WT>  (1935) 
188.22699999999998

>  <LOGP>  (1935) 
-0.43940000000000073

>  <TPSA>  (1935) 
92.42

>  <POPULARITY>  (1935) 
12.8

>  <PROTECTED>  (1935) 
TRUE

>  <SMILES>  (1935) 
N(C(=O)[C@@H](N)[C@@H](C)CC)CC(=O)O

>  <INCHIKEY>  (1935) 
UCGDDTHMMVWVMV-FSPLSTOPSA-N

$$$$
Thr_OAla
     RDKit          2D

 13 12  0  0  0  0  0  0  0  0999 V2000
   -0.5489    1.5324    0.0000 N   0  0  0  0  0  0  0  0  0  0  0  0
   -1.3711    0.2778    0.0000 C   0  0  0  0  0  0  0  0  0  0  0  0
   -0.6957   -1.0616    0.0000 C   0  0  0  0  0  0  0  0  0  0  0  0
    0.8019   -1.1463    0.0000 O   0  0  0  0  0  0  0  0  0  0  0  0
    1.6241    0.1082    0.0000 C   0  0  0  0  0  0  0  0  0  0  0  0
    0.9487    1.4476    0.0000 O   0  0  0  0  0  0  0  0  0  0  0  0
    3.1217    0.0235    0.0000 C   0  0  0  0  0  0  0  0  0  0  0  0
    3.9439    1.2780    0.0000 C   0  0  0  0  0  0  0  0  0  0  0  0
    3.7971   -1.3159    0.0000 N   0  0  0  0  0  0  0  0  0  0  0  0
   -1.5179   -2.3161    0.0000 C   0  0  0  0  0  0  0  0  0  0  0  0
   -2.8687    0.3626    0.0000 C   0  0  0  0  0  0  0  0  0  0  0  0
   -3.6909   -0.8920    0.0000 O   0  0  0  0  0  0  0  0  0  0  0  0
   -3.5441    1.7019    0.0000 O   0  0  0  0  0  0  0  0  0  0  0  0
  2  1  1  1
  2  3  1  0
  3  4  1  0
  4  5  1  0
  5  6  2  0
  5  7  1  0
  7  8  1  6
  7  9  1  0
  3 10  1  6
  2 11  1  0
 11 12  2  0
 11 13  1  0
M  END
>  <rName>  (1936) 
Thr_OAla

>  <PQ_SYMBOL>  (1936) 
Thr_OAla

>  <FULL_NAME>  (1936) 
O-(L-alanyl)-L-threonine

>  <IUPAC_CONDENSED>  (1936) 
Thr(O-Ala)

>  <IUPAC>  (1936) 
(2S,3R)-2-amino-3-((1S)-1-aminoethylcarbonyloxy)butanoic acid

>  <TYPE>  (1936) 
Backbone

>  <CLASS>  (1936) 
alpha

>  <ANALOG>  (1936) 
Thr

>  <MOL_WT>  (1936) 
190.19899999999996

>  <LOGP>  (1936) 
-1.3227999999999989

>  <TPSA>  (1936) 
115.64

>  <POPULARITY>  (1936) 
8

>  <PROTECTED>  (1936) 
TRUE

>  <SMILES>  (1936) 
N[C@@H]([C@H](OC(=O)[C@H](C)N)C)C(=O)O

>  <INCHIKEY>  (1936) 
PAXPCEGUGMQDAF-LMVFSUKVSA-N

$$$$
Ser_OLeu
     RDKit          2D

 15 14  0  0  0  0  0  0  0  0999 V2000
    3.0893   -1.9459    0.0000 N   0  0  0  0  0  0  0  0  0  0  0  0
    3.1825   -0.4488    0.0000 C   0  0  0  0  0  0  0  0  0  0  0  0
    1.9327    0.3806    0.0000 C   0  0  0  0  0  0  0  0  0  0  0  0
    0.5895   -0.2872    0.0000 O   0  0  0  0  0  0  0  0  0  0  0  0
   -0.6604    0.5421    0.0000 C   0  0  0  0  0  0  0  0  0  0  0  0
   -0.5671    2.0392    0.0000 O   0  0  0  0  0  0  0  0  0  0  0  0
   -2.0035   -0.1257    0.0000 C   0  0  0  0  0  0  0  0  0  0  0  0
   -2.0968   -1.6228    0.0000 N   0  0  0  0  0  0  0  0  0  0  0  0
   -3.2534    0.7037    0.0000 C   0  0  0  0  0  0  0  0  0  0  0  0
   -4.5966    0.0359    0.0000 C   0  0  0  0  0  0  0  0  0  0  0  0
   -5.8465    0.8652    0.0000 C   0  0  0  0  0  0  0  0  0  0  0  0
   -4.6899   -1.4612    0.0000 C   0  0  0  0  0  0  0  0  0  0  0  0
    4.5257    0.2190    0.0000 C   0  0  0  0  0  0  0  0  0  0  0  0
    4.6190    1.7161    0.0000 O   0  0  0  0  0  0  0  0  0  0  0  0
    5.7756   -0.6103    0.0000 O   0  0  0  0  0  0  0  0  0  0  0  0
  2  1  1  1
  2  3  1  0
  3  4  1  0
  4  5  1  0
  5  6  2  0
  5  7  1  0
  7  8  1  1
  7  9  1  0
  9 10  1  0
 10 11  1  0
 10 12  1  0
  2 13  1  0
 13 14  2  0
 13 15  1  0
M  END
>  <rName>  (1937) 
Ser_OLeu

>  <PQ_SYMBOL>  (1937) 
Ser_OLeu

>  <FULL_NAME>  (1937) 
O-(L-leucyl)-L-serine

>  <IUPAC_CONDENSED>  (1937) 
Ser(O-Leu)

>  <IUPAC>  (1937) 
(2S)-2-amino-3-((1S)-1-amino-3-methylbutylcarbonyloxy)propanoic acid

>  <TYPE>  (1937) 
Backbone

>  <CLASS>  (1937) 
alpha

>  <ANALOG>  (1937) 
Ser

>  <MOL_WT>  (1937) 
218.253

>  <LOGP>  (1937) 
-0.6850999999999996

>  <TPSA>  (1937) 
115.64

>  <POPULARITY>  (1937) 
6.1

>  <PROTECTED>  (1937) 
TRUE

>  <SMILES>  (1937) 
N[C@@H](COC(=O)[C@@H](N)CC(C)C)C(=O)O

>  <INCHIKEY>  (1937) 
MAILEPNVKHMLDQ-BQBZGAKWSA-N

$$$$
Ser_OIle
     RDKit          2D

 15 14  0  0  0  0  0  0  0  0999 V2000
    2.9888    1.9640    0.0000 N   0  0  0  0  0  0  0  0  0  0  0  0
    2.8934    0.4670    0.0000 C   0  0  0  0  0  0  0  0  0  0  0  0
    1.5493   -0.1989    0.0000 C   0  0  0  0  0  0  0  0  0  0  0  0
    0.3006    0.6322    0.0000 O   0  0  0  0  0  0  0  0  0  0  0  0
   -1.0435   -0.0337    0.0000 C   0  0  0  0  0  0  0  0  0  0  0  0
   -1.1388   -1.5307    0.0000 O   0  0  0  0  0  0  0  0  0  0  0  0
   -2.2922    0.7973    0.0000 C   0  0  0  0  0  0  0  0  0  0  0  0
   -2.1969    2.2943    0.0000 N   0  0  0  0  0  0  0  0  0  0  0  0
   -3.6363    0.1314    0.0000 C   0  0  0  0  0  0  0  0  0  0  0  0
   -4.8850    0.9625    0.0000 C   0  0  0  0  0  0  0  0  0  0  0  0
   -3.7317   -1.3655    0.0000 C   0  0  0  0  0  0  0  0  0  0  0  0
   -2.4829   -2.1966    0.0000 C   0  0  0  0  0  0  0  0  0  0  0  0
    4.1422   -0.3641    0.0000 C   0  0  0  0  0  0  0  0  0  0  0  0
    4.0468   -1.8610    0.0000 O   0  0  0  0  0  0  0  0  0  0  0  0
    5.4862    0.3018    0.0000 O   0  0  0  0  0  0  0  0  0  0  0  0
  2  1  1  6
  2  3  1  0
  3  4  1  0
  4  5  1  0
  5  6  2  0
  5  7  1  0
  7  8  1  6
  7  9  1  0
  9 10  1  6
  9 11  1  0
 11 12  1  0
  2 13  1  0
 13 14  2  0
 13 15  1  0
M  END
>  <rName>  (1938) 
Ser_OIle

>  <PQ_SYMBOL>  (1938) 
Ser_OIle

>  <FULL_NAME>  (1938) 
O-(L-isoleucyl)-L-serine

>  <IUPAC_CONDENSED>  (1938) 
Ser(O-Ile)

>  <IUPAC>  (1938) 
(2S)-2-amino-3-((1S,2S)-1-amino-2-methylbutylcarbonyloxy)propanoic acid

>  <TYPE>  (1938) 
Backbone

>  <CLASS>  (1938) 
alpha

>  <ANALOG>  (1938) 
Ser

>  <MOL_WT>  (1938) 
218.253

>  <LOGP>  (1938) 
-0.6850999999999996

>  <TPSA>  (1938) 
115.64

>  <POPULARITY>  (1938) 
5.5

>  <PROTECTED>  (1938) 
TRUE

>  <SMILES>  (1938) 
N[C@@H](COC(=O)[C@@H](N)[C@@H](C)CC)C(=O)O

>  <INCHIKEY>  (1938) 
LSUNZJPKZOWBJP-ACZMJKKPSA-N

$$$$
Ser_OSer
     RDKit          2D

 13 12  0  0  0  0  0  0  0  0999 V2000
   -2.3174   -1.9466    0.0000 N   0  0  0  0  0  0  0  0  0  0  0  0
   -2.3813   -0.4480    0.0000 C   0  0  0  0  0  0  0  0  0  0  0  0
   -1.1154    0.3567    0.0000 C   0  0  0  0  0  0  0  0  0  0  0  0
    0.2144   -0.3373    0.0000 O   0  0  0  0  0  0  0  0  0  0  0  0
    1.4803    0.4673    0.0000 C   0  0  0  0  0  0  0  0  0  0  0  0
    1.4164    1.9660    0.0000 O   0  0  0  0  0  0  0  0  0  0  0  0
    2.8101   -0.2266    0.0000 C   0  0  0  0  0  0  0  0  0  0  0  0
    2.8740   -1.7253    0.0000 N   0  0  0  0  0  0  0  0  0  0  0  0
    4.0760    0.5780    0.0000 C   0  0  0  0  0  0  0  0  0  0  0  0
    5.4059   -0.1160    0.0000 O   0  0  0  0  0  0  0  0  0  0  0  0
   -3.7111    0.2460    0.0000 C   0  0  0  0  0  0  0  0  0  0  0  0
   -3.7750    1.7446    0.0000 O   0  0  0  0  0  0  0  0  0  0  0  0
   -4.9770   -0.5587    0.0000 O   0  0  0  0  0  0  0  0  0  0  0  0
  2  1  1  6
  2  3  1  0
  3  4  1  0
  4  5  1  0
  5  6  2  0
  5  7  1  0
  7  8  1  6
  7  9  1  0
  9 10  1  0
  2 11  1  0
 11 12  2  0
 11 13  1  0
M  END
>  <rName>  (1939) 
Ser_OSer

>  <PQ_SYMBOL>  (1939) 
Ser_OSer

>  <FULL_NAME>  (1939) 
O-(L-seryl)-L-serine

>  <IUPAC_CONDENSED>  (1939) 
Ser(O-Ser)

>  <IUPAC>  (1939) 
(2S)-2-amino-3-((1S)-1-amino-2-hydroxyethylcarbonyloxy)propanoic acid

>  <TYPE>  (1939) 
Backbone

>  <CLASS>  (1939) 
alpha

>  <ANALOG>  (1939) 
Ser

>  <MOL_WT>  (1939) 
192.171

>  <LOGP>  (1939) 
-2.738899999999998

>  <TPSA>  (1939) 
135.87

>  <POPULARITY>  (1939) 
5.1

>  <PROTECTED>  (1939) 
TRUE

>  <SMILES>  (1939) 
N[C@@H](COC(=O)[C@@H](N)CO)C(=O)O

>  <INCHIKEY>  (1939) 
HIWWZBYXUFOXEL-IMJSIDKUSA-N

$$$$
Ser_OMet
     RDKit          2D

 15 14  0  0  0  0  0  0  0  0999 V2000
    3.3319   -1.9309    0.0000 N   0  0  0  0  0  0  0  0  0  0  0  0
    3.3681   -0.4314    0.0000 C   0  0  0  0  0  0  0  0  0  0  0  0
    2.0875    0.3497    0.0000 C   0  0  0  0  0  0  0  0  0  0  0  0
    0.7708   -0.3687    0.0000 O   0  0  0  0  0  0  0  0  0  0  0  0
   -0.5098    0.4124    0.0000 C   0  0  0  0  0  0  0  0  0  0  0  0
   -0.4736    1.9120    0.0000 O   0  0  0  0  0  0  0  0  0  0  0  0
   -1.8266   -0.3060    0.0000 C   0  0  0  0  0  0  0  0  0  0  0  0
   -1.8627   -1.8056    0.0000 N   0  0  0  0  0  0  0  0  0  0  0  0
   -3.1071    0.4751    0.0000 C   0  0  0  0  0  0  0  0  0  0  0  0
   -4.4239   -0.2434    0.0000 C   0  0  0  0  0  0  0  0  0  0  0  0
   -5.7045    0.5378    0.0000 S   0  0  0  0  0  0  0  0  0  0  0  0
   -7.0212   -0.1807    0.0000 C   0  0  0  0  0  0  0  0  0  0  0  0
    4.6848    0.2871    0.0000 C   0  0  0  0  0  0  0  0  0  0  0  0
    4.7210    1.7866    0.0000 O   0  0  0  0  0  0  0  0  0  0  0  0
    5.9654   -0.4940    0.0000 O   0  0  0  0  0  0  0  0  0  0  0  0
  2  1  1  1
  2  3  1  0
  3  4  1  0
  4  5  1  0
  5  6  2  0
  5  7  1  0
  7  8  1  1
  7  9  1  0
  9 10  1  0
 10 11  1  0
 11 12  1  0
  2 13  1  0
 13 14  2  0
 13 15  1  0
M  END
>  <rName>  (1940) 
Ser_OMet

>  <PQ_SYMBOL>  (1940) 
Ser_OMet

>  <FULL_NAME>  (1940) 
O-(L-methionyl)-L-serine

>  <IUPAC_CONDENSED>  (1940) 
Ser(O-Met)

>  <IUPAC>  (1940) 
(2S)-2-amino-3-((1S)-1-amino-3-(methylsulfanyl)propylcarbonyloxy)propanoic acid

>  <TYPE>  (1940) 
Backbone

>  <CLASS>  (1940) 
alpha

>  <ANALOG>  (1940) 
Ser

>  <MOL_WT>  (1940) 
236.29299999999998

>  <LOGP>  (1940) 
-0.9780999999999991

>  <TPSA>  (1940) 
115.64

>  <POPULARITY>  (1940) 
2.9

>  <PROTECTED>  (1940) 
TRUE

>  <SMILES>  (1940) 
N[C@@H](COC(=O)[C@@H](N)CCSC)C(=O)O

>  <INCHIKEY>  (1940) 
FXMUHQZXHNDOLK-WDSKDSINSA-N

$$$$
Ser_OPhe
     RDKit          2D

 18 18  0  0  0  0  0  0  0  0999 V2000
   -4.1168    2.0129    0.0000 N   0  0  0  0  0  0  0  0  0  0  0  0
   -4.2983    0.5239    0.0000 C   0  0  0  0  0  0  0  0  0  0  0  0
   -3.0996   -0.3778    0.0000 C   0  0  0  0  0  0  0  0  0  0  0  0
   -1.7193    0.2096    0.0000 O   0  0  0  0  0  0  0  0  0  0  0  0
   -0.5206   -0.6921    0.0000 C   0  0  0  0  0  0  0  0  0  0  0  0
   -0.7020   -2.1811    0.0000 O   0  0  0  0  0  0  0  0  0  0  0  0
    0.8597   -0.1048    0.0000 C   0  0  0  0  0  0  0  0  0  0  0  0
    1.0411    1.3842    0.0000 N   0  0  0  0  0  0  0  0  0  0  0  0
    2.0584   -1.0064    0.0000 C   0  0  0  0  0  0  0  0  0  0  0  0
    3.4387   -0.4191    0.0000 C   0  0  0  0  0  0  0  0  0  0  0  0
    3.6201    1.0699    0.0000 C   0  0  0  0  0  0  0  0  0  0  0  0
    5.0004    1.6572    0.0000 C   0  0  0  0  0  0  0  0  0  0  0  0
    6.1991    0.7556    0.0000 C   0  0  0  0  0  0  0  0  0  0  0  0
    6.0176   -0.7334    0.0000 C   0  0  0  0  0  0  0  0  0  0  0  0
    4.6374   -1.3208    0.0000 C   0  0  0  0  0  0  0  0  0  0  0  0
   -5.6786   -0.0634    0.0000 C   0  0  0  0  0  0  0  0  0  0  0  0
   -5.8600   -1.5524    0.0000 O   0  0  0  0  0  0  0  0  0  0  0  0
   -6.8773    0.8382    0.0000 O   0  0  0  0  0  0  0  0  0  0  0  0
  2  1  1  1
  2  3  1  0
  3  4  1  0
  4  5  1  0
  5  6  2  0
  5  7  1  0
  7  8  1  1
  7  9  1  0
  9 10  1  0
 10 11  2  0
 11 12  1  0
 12 13  2  0
 13 14  1  0
 14 15  2  0
  2 16  1  0
 16 17  2  0
 16 18  1  0
 15 10  1  0
M  END
>  <rName>  (1941) 
Ser_OPhe

>  <PQ_SYMBOL>  (1941) 
Ser_OPhe

>  <FULL_NAME>  (1941) 
O-(L-phenylalanyl)-L-serine

>  <IUPAC_CONDENSED>  (1941) 
Ser(O-Phe)

>  <IUPAC>  (1941) 
(2S)-2-amino-3-((1S)-1-amino-2-phenylethylcarbonyloxy)propanoic acid

>  <TYPE>  (1941) 
Backbone

>  <CLASS>  (1941) 
alpha

>  <ANALOG>  (1941) 
Ser

>  <MOL_WT>  (1941) 
252.27

>  <LOGP>  (1941) 
-0.4884999999999991

>  <TPSA>  (1941) 
115.64

>  <POPULARITY>  (1941) 
5.3

>  <PROTECTED>  (1941) 
TRUE

>  <SMILES>  (1941) 
N[C@@H](COC(=O)[C@@H](N)Cc1(ccccc1))C(=O)O

>  <INCHIKEY>  (1941) 
ZGABJPMNBMIYGX-UWVGGRQHSA-N

$$$$
Thr_OMet
     RDKit          2D

 16 15  0  0  0  0  0  0  0  0999 V2000
    1.5055    1.4798    0.0000 N   0  0  0  0  0  0  0  0  0  0  0  0
    2.5569    0.4100    0.0000 C   0  0  0  0  0  0  0  0  0  0  0  0
    2.1563   -1.0355    0.0000 C   0  0  0  0  0  0  0  0  0  0  0  0
    0.7041   -1.4112    0.0000 O   0  0  0  0  0  0  0  0  0  0  0  0
   -0.3474   -0.3415    0.0000 C   0  0  0  0  0  0  0  0  0  0  0  0
    0.0533    1.1040    0.0000 O   0  0  0  0  0  0  0  0  0  0  0  0
   -1.7996   -0.7172    0.0000 C   0  0  0  0  0  0  0  0  0  0  0  0
   -2.2003   -2.1627    0.0000 N   0  0  0  0  0  0  0  0  0  0  0  0
   -2.8511    0.3525    0.0000 C   0  0  0  0  0  0  0  0  0  0  0  0
   -4.3033   -0.0232    0.0000 C   0  0  0  0  0  0  0  0  0  0  0  0
   -5.3547    1.0465    0.0000 S   0  0  0  0  0  0  0  0  0  0  0  0
   -6.8069    0.6708    0.0000 C   0  0  0  0  0  0  0  0  0  0  0  0
    3.2077   -2.1052    0.0000 C   0  0  0  0  0  0  0  0  0  0  0  0
    4.0091    0.7857    0.0000 C   0  0  0  0  0  0  0  0  0  0  0  0
    5.0606   -0.2840    0.0000 O   0  0  0  0  0  0  0  0  0  0  0  0
    4.4098    2.2312    0.0000 O   0  0  0  0  0  0  0  0  0  0  0  0
  2  1  1  6
  2  3  1  0
  3  4  1  0
  4  5  1  0
  5  6  2  0
  5  7  1  0
  7  8  1  1
  7  9  1  0
  9 10  1  0
 10 11  1  0
 11 12  1  0
  3 13  1  1
  2 14  1  0
 14 15  2  0
 14 16  1  0
M  END
>  <rName>  (1942) 
Thr_OMet

>  <PQ_SYMBOL>  (1942) 
Thr_OMet

>  <FULL_NAME>  (1942) 
O-(L-methionyl)-L-threonine

>  <IUPAC_CONDENSED>  (1942) 
Thr(O-Met)

>  <IUPAC>  (1942) 
(2S,3R)-2-amino-3-((1S)-1-amino-3-(methylsulfanyl)propylcarbonyloxy)butanoic acid

>  <TYPE>  (1942) 
Backbone

>  <CLASS>  (1942) 
alpha

>  <ANALOG>  (1942) 
Thr

>  <MOL_WT>  (1942) 
250.31999999999996

>  <LOGP>  (1942) 
-0.5895999999999995

>  <TPSA>  (1942) 
115.64

>  <POPULARITY>  (1942) 
2.8

>  <PROTECTED>  (1942) 
TRUE

>  <SMILES>  (1942) 
N[C@@H]([C@H](OC(=O)[C@@H](N)CCSC)C)C(=O)O

>  <INCHIKEY>  (1942) 
POJUOPTXKKQYKO-VQVTYTSYSA-N

$$$$
Thr_OPhe
     RDKit          2D

 19 19  0  0  0  0  0  0  0  0999 V2000
   -2.5778   -1.5038    0.0000 N   0  0  0  0  0  0  0  0  0  0  0  0
   -3.5452   -0.3574    0.0000 C   0  0  0  0  0  0  0  0  0  0  0  0
   -3.0361    1.0535    0.0000 C   0  0  0  0  0  0  0  0  0  0  0  0
   -1.5596    1.3181    0.0000 O   0  0  0  0  0  0  0  0  0  0  0  0
   -0.5922    0.1717    0.0000 C   0  0  0  0  0  0  0  0  0  0  0  0
   -1.1013   -1.2392    0.0000 O   0  0  0  0  0  0  0  0  0  0  0  0
    0.8843    0.4363    0.0000 C   0  0  0  0  0  0  0  0  0  0  0  0
    1.3934    1.8472    0.0000 N   0  0  0  0  0  0  0  0  0  0  0  0
    1.8516   -0.7101    0.0000 C   0  0  0  0  0  0  0  0  0  0  0  0
    3.3281   -0.4455    0.0000 C   0  0  0  0  0  0  0  0  0  0  0  0
    3.8372    0.9654    0.0000 C   0  0  0  0  0  0  0  0  0  0  0  0
    5.3137    1.2300    0.0000 C   0  0  0  0  0  0  0  0  0  0  0  0
    6.2811    0.0836    0.0000 C   0  0  0  0  0  0  0  0  0  0  0  0
    5.7720   -1.3273    0.0000 C   0  0  0  0  0  0  0  0  0  0  0  0
    4.2955   -1.5919    0.0000 C   0  0  0  0  0  0  0  0  0  0  0  0
   -4.0034    2.1999    0.0000 C   0  0  0  0  0  0  0  0  0  0  0  0
   -5.0217   -0.6220    0.0000 C   0  0  0  0  0  0  0  0  0  0  0  0
   -5.9890    0.5244    0.0000 O   0  0  0  0  0  0  0  0  0  0  0  0
   -5.5308   -2.0329    0.0000 O   0  0  0  0  0  0  0  0  0  0  0  0
  2  1  1  6
  2  3  1  0
  3  4  1  0
  4  5  1  0
  5  6  2  0
  5  7  1  0
  7  8  1  1
  7  9  1  0
  9 10  1  0
 10 11  2  0
 11 12  1  0
 12 13  2  0
 13 14  1  0
 14 15  2  0
  3 16  1  1
  2 17  1  0
 17 18  2  0
 17 19  1  0
 15 10  1  0
M  END
>  <rName>  (1943) 
Thr_OPhe

>  <PQ_SYMBOL>  (1943) 
Thr_OPhe

>  <FULL_NAME>  (1943) 
O-(L-phenylalanyl)-L-threonine

>  <IUPAC_CONDENSED>  (1943) 
Thr(O-Phe)

>  <IUPAC>  (1943) 
(2S,3R)-2-amino-3-((1S)-1-amino-2-phenylethylcarbonyloxy)butanoic acid

>  <TYPE>  (1943) 
Backbone

>  <CLASS>  (1943) 
alpha

>  <ANALOG>  (1943) 
Thr

>  <MOL_WT>  (1943) 
266.29699999999997

>  <LOGP>  (1943) 
-0.09999999999999926

>  <TPSA>  (1943) 
115.64

>  <POPULARITY>  (1943) 
5.1

>  <PROTECTED>  (1943) 
TRUE

>  <SMILES>  (1943) 
N[C@@H]([C@H](OC(=O)[C@@H](N)Cc1(ccccc1))C)C(=O)O

>  <INCHIKEY>  (1943) 
IKQYHLGTABGTFX-MIMYLULJSA-N

$$$$
Gln_Bn_24_6triOMe
     RDKit          2D

 23 23  0  0  0  0  0  0  0  0999 V2000
   -5.4709    1.9607    0.0000 N   0  0  0  0  0  0  0  0  0  0  0  0
   -5.6300    0.4692    0.0000 C   0  0  0  0  0  0  0  0  0  0  0  0
   -4.4178   -0.4143    0.0000 C   0  0  0  0  0  0  0  0  0  0  0  0
   -3.0466    0.1937    0.0000 C   0  0  0  0  0  0  0  0  0  0  0  0
   -1.8344   -0.6898    0.0000 C   0  0  0  0  0  0  0  0  0  0  0  0
   -1.9934   -2.1814    0.0000 O   0  0  0  0  0  0  0  0  0  0  0  0
   -0.4631   -0.0818    0.0000 N   0  0  0  0  0  0  0  0  0  0  0  0
    0.7491   -0.9653    0.0000 C   0  0  0  0  0  0  0  0  0  0  0  0
    2.1203   -0.3573    0.0000 C   0  0  0  0  0  0  0  0  0  0  0  0
    2.2794    1.1343    0.0000 C   0  0  0  0  0  0  0  0  0  0  0  0
    1.0672    2.0178    0.0000 O   0  0  0  0  0  0  0  0  0  0  0  0
    1.2262    3.5093    0.0000 C   0  0  0  0  0  0  0  0  0  0  0  0
    3.6506    1.7423    0.0000 C   0  0  0  0  0  0  0  0  0  0  0  0
    4.8628    0.8588    0.0000 C   0  0  0  0  0  0  0  0  0  0  0  0
    6.2340    1.4668    0.0000 O   0  0  0  0  0  0  0  0  0  0  0  0
    7.4462    0.5833    0.0000 C   0  0  0  0  0  0  0  0  0  0  0  0
    4.7037   -0.6327    0.0000 C   0  0  0  0  0  0  0  0  0  0  0  0
    3.3325   -1.2408    0.0000 C   0  0  0  0  0  0  0  0  0  0  0  0
    3.1735   -2.7323    0.0000 O   0  0  0  0  0  0  0  0  0  0  0  0
    4.3856   -3.6158    0.0000 C   0  0  0  0  0  0  0  0  0  0  0  0
   -7.0012   -0.1389    0.0000 C   0  0  0  0  0  0  0  0  0  0  0  0
   -7.1603   -1.6304    0.0000 O   0  0  0  0  0  0  0  0  0  0  0  0
   -8.2134    0.7446    0.0000 O   0  0  0  0  0  0  0  0  0  0  0  0
  2  1  1  1
  2  3  1  0
  3  4  1  0
  4  5  1  0
  5  6  2  0
  5  7  1  0
  7  8  1  0
  8  9  1  0
  9 10  2  0
 10 11  1  0
 11 12  1  0
 10 13  1  0
 13 14  2  0
 14 15  1  0
 15 16  1  0
 14 17  1  0
 17 18  2  0
 18 19  1  0
 19 20  1  0
  2 21  1  0
 21 22  2  0
 21 23  1  0
 18  9  1  0
M  END
>  <rName>  (1944) 
Gln_Bn_24_6triOMe

>  <PQ_SYMBOL>  (1944) 
Gln_Bn_24_6triOMe

>  <FULL_NAME>  (1944) 
N5-(2,4,6-trimethoxybenzyl)-L-glutamine

>  <IUPAC_CONDENSED>  (1944) 
Gln(Bn(2,4,6-triOMe))

>  <IUPAC>  (1944) 
(2S)-2-amino-4-(((2,4,6-trimethoxyphenyl)methyl)carbamoyl)butanoic acid

>  <TYPE>  (1944) 
Backbone

>  <CLASS>  (1944) 
alpha

>  <ANALOG>  (1944) 
Gln

>  <MOL_WT>  (1944) 
326.34900000000005

>  <LOGP>  (1944) 
0.5206999999999995

>  <TPSA>  (1944) 
120.11000000000003

>  <POPULARITY>  (1944) 
2.8

>  <PROTECTED>  (1944) 
TRUE

>  <SMILES>  (1944) 
N[C@@H](CCC(=O)NCc1(c(OC)cc(OC)cc1OC))C(=O)O

>  <INCHIKEY>  (1944) 
YBQMKHVKNROFTJ-NSHDSACASA-N

$$$$
Abu_23dehydro
     RDKit          2D

  7  6  0  0  0  0  0  0  0  0999 V2000
   -0.7500   -2.0413    0.0000 N   0  0  0  0  0  0  0  0  0  0  0  0
   -0.0000   -0.7423    0.0000 C   0  0  0  0  0  0  0  0  0  0  0  0
    1.5000   -0.7423    0.0000 C   0  0  0  0  0  0  0  0  0  0  0  0
    2.2500    0.5567    0.0000 C   0  0  0  0  0  0  0  0  0  0  0  0
   -0.7500    0.5567    0.0000 C   0  0  0  0  0  0  0  0  0  0  0  0
    0.0000    1.8558    0.0000 O   0  0  0  0  0  0  0  0  0  0  0  0
   -2.2500    0.5567    0.0000 O   0  0  0  0  0  0  0  0  0  0  0  0
  1  2  1  0
  2  3  2  0
  3  4  1  0
  2  5  1  0
  5  6  2  0
  5  7  1  0
M  END
>  <rName>  (1945) 
Abu_23dehydro

>  <PQ_SYMBOL>  (1945) 
Abu_23dehydro

>  <FULL_NAME>  (1945) 
(E)-2-aminobut-2-enoic acid

>  <IUPAC_CONDENSED>  (1945) 
Abu(2,3-dehydro)

>  <IUPAC>  (1945) 
(2E)-2-aminobut-2-enoic acid

>  <TYPE>  (1945) 
Backbone

>  <CLASS>  (1945) 
alpha

>  <ANALOG>  (1945) 
Ala

>  <MOL_WT>  (1945) 
101.10499999999999

>  <LOGP>  (1945) 
-0.06650000000000006

>  <TPSA>  (1945) 
63.32000000000001

>  <POPULARITY>  (1945) 
5.7

>  <PROTECTED>  (1945) 
TRUE

>  <SMILES>  (1945) 
N/C(=C/C)C(=O)O

>  <INCHIKEY>  (1945) 
PAWSVPVNIXFKOS-NSCUHMNNSA-N

$$$$
D-Phe_2MeNH2
     RDKit          2D

 14 14  0  0  0  0  0  0  0  0999 V2000
   -1.9781    1.7869    0.0000 N   0  0  0  0  0  0  0  0  0  0  0  0
   -2.0323    0.2879    0.0000 C   0  0  0  0  0  0  0  0  0  0  0  0
   -0.7612   -0.5086    0.0000 C   0  0  0  0  0  0  0  0  0  0  0  0
    0.5641    0.1940    0.0000 C   0  0  0  0  0  0  0  0  0  0  0  0
    0.6183    1.6931    0.0000 C   0  0  0  0  0  0  0  0  0  0  0  0
    1.9435    2.3957    0.0000 C   0  0  0  0  0  0  0  0  0  0  0  0
    3.2146    1.5993    0.0000 C   0  0  0  0  0  0  0  0  0  0  0  0
    3.1605    0.1002    0.0000 C   0  0  0  0  0  0  0  0  0  0  0  0
    1.8352   -0.6024    0.0000 C   0  0  0  0  0  0  0  0  0  0  0  0
    1.7811   -2.1014    0.0000 C   0  0  0  0  0  0  0  0  0  0  0  0
    3.0522   -2.8978    0.0000 N   0  0  0  0  0  0  0  0  0  0  0  0
   -3.3575   -0.4148    0.0000 C   0  0  0  0  0  0  0  0  0  0  0  0
   -3.4117   -1.9138    0.0000 O   0  0  0  0  0  0  0  0  0  0  0  0
   -4.6287    0.3817    0.0000 O   0  0  0  0  0  0  0  0  0  0  0  0
  2  1  1  6
  2  3  1  0
  3  4  1  0
  4  5  2  0
  5  6  1  0
  6  7  2  0
  7  8  1  0
  8  9  2  0
  9 10  1  0
 10 11  1  0
  2 12  1  0
 12 13  2  0
 12 14  1  0
  9  4  1  0
M  END
>  <rName>  (1946) 
D-Phe_2MeNH2

>  <PQ_SYMBOL>  (1946) 
D-Phe_2MeNH2

>  <FULL_NAME>  (1946) 
(R)-2-amino-3-(2-(aminomethyl)phenyl)propanoic acid

>  <IUPAC_CONDENSED>  (1946) 
D-Phe(2-MeNH2)

>  <IUPAC>  (1946) 
(2R)-2-amino-3-(2-(aminomethyl)phenyl)propanoic acid

>  <TYPE>  (1946) 
Backbone

>  <CLASS>  (1946) 
alpha

>  <ANALOG>  (1946) 
Phe

>  <MOL_WT>  (1946) 
194.23399999999995

>  <LOGP>  (1946) 
0.09970000000000018

>  <TPSA>  (1946) 
89.34

>  <POPULARITY>  (1946) 
5.8

>  <PROTECTED>  (1946) 
TRUE

>  <SMILES>  (1946) 
N[C@H](Cc1(ccccc1CN))C(=O)O

>  <INCHIKEY>  (1946) 
RDAKEAJYLGZEEA-SECBINFHSA-N

$$$$
D-Phe_24diNO2
     RDKit          2D

 18 18  0  0  0  0  0  0  0  0999 V2000
   -2.2817    2.2658    0.0000 N   0  0  0  0  0  0  0  0  0  0  0  0
   -2.7617    0.8447    0.0000 C   0  0  0  0  0  0  0  0  0  0  0  0
   -1.7709   -0.2815    0.0000 C   0  0  0  0  0  0  0  0  0  0  0  0
   -0.3002    0.0134    0.0000 C   0  0  0  0  0  0  0  0  0  0  0  0
    0.1798    1.4346    0.0000 C   0  0  0  0  0  0  0  0  0  0  0  0
    1.6505    1.7295    0.0000 C   0  0  0  0  0  0  0  0  0  0  0  0
    2.6413    0.6033    0.0000 C   0  0  0  0  0  0  0  0  0  0  0  0
    2.1613   -0.8179    0.0000 C   0  0  0  0  0  0  0  0  0  0  0  0
    0.6906   -1.1128    0.0000 C   0  0  0  0  0  0  0  0  0  0  0  0
    0.2107   -2.5339    0.0000 N   0  0  0  0  0  0  0  0  0  0  0  0
   -1.2601   -2.8289    0.0000 O   0  0  0  0  0  0  0  0  0  0  0  0
    1.2014   -3.6602    0.0000 O   0  0  0  0  0  0  0  0  0  0  0  0
    4.1120    0.8982    0.0000 N   0  0  0  0  0  0  0  0  0  0  0  0
    4.5919    2.3193    0.0000 O   0  0  0  0  0  0  0  0  0  0  0  0
    5.1028   -0.2280    0.0000 O   0  0  0  0  0  0  0  0  0  0  0  0
   -4.2324    0.5498    0.0000 C   0  0  0  0  0  0  0  0  0  0  0  0
   -4.7123   -0.8714    0.0000 O   0  0  0  0  0  0  0  0  0  0  0  0
   -5.2232    1.6760    0.0000 O   0  0  0  0  0  0  0  0  0  0  0  0
  2  1  1  6
  2  3  1  0
  3  4  1  0
  4  5  1  0
  5  6  2  0
  6  7  1  0
  7  8  2  0
  8  9  1  0
  9 10  1  0
 10 11  2  0
 10 12  1  0
  7 13  1  0
 13 14  2  0
 13 15  1  0
  2 16  1  0
 16 17  2  0
 16 18  1  0
  9  4  2  0
M  CHG  4  10   1  12  -1  13   1  15  -1
M  END
>  <rName>  (1947) 
D-Phe_24diNO2

>  <PQ_SYMBOL>  (1947) 
D-Phe_24diNO2

>  <FULL_NAME>  (1947) 
(R)-2-amino-3-(2,4-dinitrophenyl)propanoic acid

>  <IUPAC_CONDENSED>  (1947) 
D-Phe(2,4-diNO2)

>  <IUPAC>  (1947) 
(2R)-2-amino-3-(2,4-dinitrophenyl)propanoic acid

>  <TYPE>  (1947) 
Backbone

>  <CLASS>  (1947) 
alpha

>  <ANALOG>  (1947) 
Phe

>  <MOL_WT>  (1947) 
255.18599999999995

>  <LOGP>  (1947) 
0.45739999999999975

>  <TPSA>  (1947) 
149.6

>  <POPULARITY>  (1947) 
4.2

>  <PROTECTED>  (1947) 
TRUE

>  <SMILES>  (1947) 
N[C@H](Cc1(ccc(cc1[N+](=O)[O-])[N+](=O)[O-]))C(=O)O

>  <INCHIKEY>  (1947) 
LLVUHQYJZJUDAM-SSDOTTSWSA-N

$$$$
Thr-Gly
     RDKit          2D

 12 11  0  0  0  0  0  0  0  0999 V2000
   -0.8979    0.2905    0.0000 N   0  0  0  0  0  0  0  0  0  0  0  0
    0.4669   -0.3319    0.0000 C   0  0  0  0  0  0  0  0  0  0  0  0
    0.6102   -1.8250    0.0000 O   0  0  0  0  0  0  0  0  0  0  0  0
    1.6883    0.5388    0.0000 C   0  0  0  0  0  0  0  0  0  0  0  0
    1.5449    2.0319    0.0000 N   0  0  0  0  0  0  0  0  0  0  0  0
    3.0531   -0.0836    0.0000 C   0  0  0  0  0  0  0  0  0  0  0  0
    3.1964   -1.5768    0.0000 O   0  0  0  0  0  0  0  0  0  0  0  0
    4.2745    0.7871    0.0000 C   0  0  0  0  0  0  0  0  0  0  0  0
   -2.1193   -0.5802    0.0000 C   0  0  0  0  0  0  0  0  0  0  0  0
   -3.4841    0.0422    0.0000 C   0  0  0  0  0  0  0  0  0  0  0  0
   -3.6274    1.5354    0.0000 O   0  0  0  0  0  0  0  0  0  0  0  0
   -4.7055   -0.8285    0.0000 O   0  0  0  0  0  0  0  0  0  0  0  0
  1  2  1  0
  2  3  2  0
  2  4  1  0
  4  5  1  1
  4  6  1  0
  6  7  1  0
  6  8  1  1
  1  9  1  0
  9 10  1  0
 10 11  2  0
 10 12  1  0
M  END
>  <rName>  (1948) 
Thr-Gly

>  <PQ_SYMBOL>  (1948) 
Thr-Gly

>  <FULL_NAME>  (1948) 
L-threonylglycine

>  <IUPAC_CONDENSED>  (1948) 
Thr-Gly

>  <IUPAC>  (1948) 
2-((1S,2R)-1-amino-2-hydroxypropylcarbonylamino)acetic acid

>  <TYPE>  (1948) 
Backbone

>  <CLASS>  (1948) 
alpha

>  <ANALOG>  (1948) 
Gly

>  <MOL_WT>  (1948) 
176.17199999999997

>  <LOGP>  (1948) 
-2.1046999999999993

>  <TPSA>  (1948) 
112.65000000000002

>  <POPULARITY>  (1948) 
13.4

>  <PROTECTED>  (1948) 
TRUE

>  <SMILES>  (1948) 
N(C(=O)[C@@H](N)[C@H](O)C)CC(=O)O

>  <INCHIKEY>  (1948) 
BIYXEUAFGLTAEM-WUJLRWPWSA-N

$$$$
Asn-Gly
     RDKit          2D

 13 12  0  0  0  0  0  0  0  0999 V2000
   -1.3967   -0.1401    0.0000 N   0  0  0  0  0  0  0  0  0  0  0  0
   -0.1111    0.6328    0.0000 C   0  0  0  0  0  0  0  0  0  0  0  0
   -0.1376    2.1325    0.0000 O   0  0  0  0  0  0  0  0  0  0  0  0
    1.2010   -0.0942    0.0000 C   0  0  0  0  0  0  0  0  0  0  0  0
    1.2275   -1.5939    0.0000 N   0  0  0  0  0  0  0  0  0  0  0  0
    2.4865    0.6786    0.0000 C   0  0  0  0  0  0  0  0  0  0  0  0
    3.7986   -0.0483    0.0000 C   0  0  0  0  0  0  0  0  0  0  0  0
    3.8251   -1.5481    0.0000 O   0  0  0  0  0  0  0  0  0  0  0  0
    5.0842    0.7245    0.0000 N   0  0  0  0  0  0  0  0  0  0  0  0
   -2.7088    0.5869    0.0000 C   0  0  0  0  0  0  0  0  0  0  0  0
   -3.9944   -0.1860    0.0000 C   0  0  0  0  0  0  0  0  0  0  0  0
   -3.9679   -1.6857    0.0000 O   0  0  0  0  0  0  0  0  0  0  0  0
   -5.3065    0.5410    0.0000 O   0  0  0  0  0  0  0  0  0  0  0  0
  1  2  1  0
  2  3  2  0
  2  4  1  0
  4  5  1  6
  4  6  1  0
  6  7  1  0
  7  8  2  0
  7  9  1  0
  1 10  1  0
 10 11  1  0
 11 12  2  0
 11 13  1  0
M  END
>  <rName>  (1949) 
Asn-Gly

>  <PQ_SYMBOL>  (1949) 
Asn-Gly

>  <FULL_NAME>  (1949) 
L-asparaginylglycine

>  <IUPAC_CONDENSED>  (1949) 
Asn-Gly

>  <IUPAC>  (1949) 
2-((1S)-1,3-diamino-3-oxopropylcarbonylamino)acetic acid

>  <TYPE>  (1949) 
Backbone

>  <CLASS>  (1949) 
alpha

>  <ANALOG>  (1949) 
Gly

>  <MOL_WT>  (1949) 
189.17099999999996

>  <LOGP>  (1949) 
-2.6100999999999983

>  <TPSA>  (1949) 
135.51

>  <POPULARITY>  (1949) 
12.4

>  <PROTECTED>  (1949) 
TRUE

>  <SMILES>  (1949) 
N(C(=O)[C@@H](N)CC(=O)N)CC(=O)O

>  <INCHIKEY>  (1949) 
KLKHFFMNGWULBN-VKHMYHEASA-N

$$$$
Ser_OTyr
     RDKit          2D

 19 19  0  0  0  0  0  0  0  0999 V2000
   -4.4597    2.0676    0.0000 N   0  0  0  0  0  0  0  0  0  0  0  0
   -4.6827    0.5842    0.0000 C   0  0  0  0  0  0  0  0  0  0  0  0
   -3.5096   -0.3505    0.0000 C   0  0  0  0  0  0  0  0  0  0  0  0
   -2.1135    0.1980    0.0000 O   0  0  0  0  0  0  0  0  0  0  0  0
   -0.9404   -0.7368    0.0000 C   0  0  0  0  0  0  0  0  0  0  0  0
   -1.1634   -2.2201    0.0000 O   0  0  0  0  0  0  0  0  0  0  0  0
    0.4557   -0.1883    0.0000 C   0  0  0  0  0  0  0  0  0  0  0  0
    0.6787    1.2951    0.0000 N   0  0  0  0  0  0  0  0  0  0  0  0
    1.6288   -1.1230    0.0000 C   0  0  0  0  0  0  0  0  0  0  0  0
    3.0249   -0.5745    0.0000 C   0  0  0  0  0  0  0  0  0  0  0  0
    3.2479    0.9088    0.0000 C   0  0  0  0  0  0  0  0  0  0  0  0
    4.6440    1.4574    0.0000 C   0  0  0  0  0  0  0  0  0  0  0  0
    5.8171    0.5226    0.0000 C   0  0  0  0  0  0  0  0  0  0  0  0
    7.2132    1.0711    0.0000 O   0  0  0  0  0  0  0  0  0  0  0  0
    5.5941   -0.9608    0.0000 C   0  0  0  0  0  0  0  0  0  0  0  0
    4.1980   -1.5093    0.0000 C   0  0  0  0  0  0  0  0  0  0  0  0
   -6.0788    0.0357    0.0000 C   0  0  0  0  0  0  0  0  0  0  0  0
   -6.3018   -1.4476    0.0000 O   0  0  0  0  0  0  0  0  0  0  0  0
   -7.2519    0.9705    0.0000 O   0  0  0  0  0  0  0  0  0  0  0  0
  2  1  1  1
  2  3  1  0
  3  4  1  0
  4  5  1  0
  5  6  2  0
  5  7  1  0
  7  8  1  1
  7  9  1  0
  9 10  1  0
 10 11  1  0
 11 12  2  0
 12 13  1  0
 13 14  1  0
 13 15  2  0
 15 16  1  0
  2 17  1  0
 17 18  2  0
 17 19  1  0
 16 10  2  0
M  END
>  <rName>  (1950) 
Ser_OTyr

>  <PQ_SYMBOL>  (1950) 
Ser_OTyr

>  <FULL_NAME>  (1950) 
O-(L-tyrosyl)-L-serine

>  <IUPAC_CONDENSED>  (1950) 
Ser(O-Tyr)

>  <IUPAC>  (1950) 
(2S)-2-amino-3-((1S)-1-amino-2-(4-hydroxyphenyl)ethylcarbonyloxy)propanoic acid

>  <TYPE>  (1950) 
Backbone

>  <CLASS>  (1950) 
alpha

>  <ANALOG>  (1950) 
Ser

>  <MOL_WT>  (1950) 
268.269

>  <LOGP>  (1950) 
-0.782899999999999

>  <TPSA>  (1950) 
135.87

>  <POPULARITY>  (1950) 
5.2

>  <PROTECTED>  (1950) 
TRUE

>  <SMILES>  (1950) 
N[C@@H](COC(=O)[C@@H](N)Cc1(ccc(O)cc1))C(=O)O

>  <INCHIKEY>  (1950) 
SFQVCDHAWHHWRN-UWVGGRQHSA-N

$$$$
Ser_OGln
     RDKit          2D

 16 15  0  0  0  0  0  0  0  0999 V2000
   -1.4186   -1.9998    0.0000 N   0  0  0  0  0  0  0  0  0  0  0  0
   -1.4510   -0.5001    0.0000 C   0  0  0  0  0  0  0  0  0  0  0  0
   -2.7659    0.2217    0.0000 C   0  0  0  0  0  0  0  0  0  0  0  0
   -4.0484   -0.5562    0.0000 C   0  0  0  0  0  0  0  0  0  0  0  0
   -5.3634    0.1657    0.0000 C   0  0  0  0  0  0  0  0  0  0  0  0
   -5.3957    1.6653    0.0000 O   0  0  0  0  0  0  0  0  0  0  0  0
   -6.6459   -0.6122    0.0000 N   0  0  0  0  0  0  0  0  0  0  0  0
   -0.1684    0.2777    0.0000 C   0  0  0  0  0  0  0  0  0  0  0  0
   -0.2007    1.7773    0.0000 O   0  0  0  0  0  0  0  0  0  0  0  0
    1.1465   -0.4441    0.0000 O   0  0  0  0  0  0  0  0  0  0  0  0
    2.4291    0.3337    0.0000 C   0  0  0  0  0  0  0  0  0  0  0  0
    3.7440   -0.3881    0.0000 C   0  0  0  0  0  0  0  0  0  0  0  0
    3.7763   -1.8878    0.0000 N   0  0  0  0  0  0  0  0  0  0  0  0
    5.0265    0.3897    0.0000 C   0  0  0  0  0  0  0  0  0  0  0  0
    4.9942    1.8894    0.0000 O   0  0  0  0  0  0  0  0  0  0  0  0
    6.3414   -0.3321    0.0000 O   0  0  0  0  0  0  0  0  0  0  0  0
  2  1  1  1
  2  3  1  0
  3  4  1  0
  4  5  1  0
  5  6  2  0
  5  7  1  0
  2  8  1  0
  8  9  2  0
  8 10  1  0
 10 11  1  0
 11 12  1  0
 12 13  1  1
 12 14  1  0
 14 15  2  0
 14 16  1  0
M  END
>  <rName>  (1951) 
Ser_OGln

>  <PQ_SYMBOL>  (1951) 
Ser_OGln

>  <FULL_NAME>  (1951) 
(2S)-2-amino-3-[(2S)-2,5-diamino-5-oxopentanoyl]oxypropanoic acid

>  <IUPAC_CONDENSED>  (1951) 
Ser(O-Gln)

>  <IUPAC>  (1951) 
(2S)-2-amino-3-((1S)-1,4-diamino-4-oxobutylcarbonyloxy)propanoic acid

>  <TYPE>  (1951) 
Backbone

>  <CLASS>  (1951) 
alpha

>  <ANALOG>  (1951) 
Gln

>  <MOL_WT>  (1951) 
233.224

>  <LOGP>  (1951) 
-2.4656999999999973

>  <TPSA>  (1951) 
158.73

>  <POPULARITY>  (1951) 
3.9

>  <PROTECTED>  (1951) 
TRUE

>  <SMILES>  (1951) 
N[C@@H](CCC(=O)N)C(=O)OC[C@H](N)C(=O)O

>  <INCHIKEY>  (1951) 
NITGXFWLRQKSKJ-WHFBIAKZSA-N

$$$$
Ser_OTrp
     RDKit          2D

 21 22  0  0  0  0  0  0  0  0999 V2000
   -5.3484   -1.8237    0.0000 N   0  0  0  0  0  0  0  0  0  0  0  0
   -5.3492   -0.3237    0.0000 C   0  0  0  0  0  0  0  0  0  0  0  0
   -4.0506    0.4270    0.0000 C   0  0  0  0  0  0  0  0  0  0  0  0
   -2.7511   -0.3223    0.0000 O   0  0  0  0  0  0  0  0  0  0  0  0
   -1.4525    0.4284    0.0000 C   0  0  0  0  0  0  0  0  0  0  0  0
   -1.4533    1.9284    0.0000 O   0  0  0  0  0  0  0  0  0  0  0  0
   -0.1530   -0.3209    0.0000 C   0  0  0  0  0  0  0  0  0  0  0  0
   -0.1522   -1.8209    0.0000 N   0  0  0  0  0  0  0  0  0  0  0  0
    1.1456    0.4298    0.0000 C   0  0  0  0  0  0  0  0  0  0  0  0
    2.4450   -0.3194    0.0000 C   0  0  0  0  0  0  0  0  0  0  0  0
    2.6026   -1.8111    0.0000 C   0  0  0  0  0  0  0  0  0  0  0  0
    4.0700   -2.1222    0.0000 N   0  0  0  0  0  0  0  0  0  0  0  0
    4.8193   -0.8227    0.0000 C   0  0  0  0  0  0  0  0  0  0  0  0
    6.2864   -0.5101    0.0000 C   0  0  0  0  0  0  0  0  0  0  0  0
    6.7491    0.9168    0.0000 C   0  0  0  0  0  0  0  0  0  0  0  0
    5.7448    2.0309    0.0000 C   0  0  0  0  0  0  0  0  0  0  0  0
    4.2778    1.7183    0.0000 C   0  0  0  0  0  0  0  0  0  0  0  0
    3.8150    0.2914    0.0000 C   0  0  0  0  0  0  0  0  0  0  0  0
   -6.6486    0.4256    0.0000 C   0  0  0  0  0  0  0  0  0  0  0  0
   -6.6495    1.9256    0.0000 O   0  0  0  0  0  0  0  0  0  0  0  0
   -7.9473   -0.3251    0.0000 O   0  0  0  0  0  0  0  0  0  0  0  0
  2  1  1  6
  2  3  1  0
  3  4  1  0
  4  5  1  0
  5  6  2  0
  5  7  1  0
  7  8  1  6
  7  9  1  0
  9 10  1  0
 10 11  2  0
 11 12  1  0
 12 13  1  0
 13 14  2  0
 14 15  1  0
 15 16  2  0
 16 17  1  0
 17 18  2  0
  2 19  1  0
 19 20  2  0
 19 21  1  0
 18 13  1  0
 18 10  1  0
M  END
>  <rName>  (1952) 
Ser_OTrp

>  <PQ_SYMBOL>  (1952) 
Ser_OTrp

>  <FULL_NAME>  (1952) 
O-(L-tryptophyl)-L-serine

>  <IUPAC_CONDENSED>  (1952) 
Ser(O-Trp)

>  <IUPAC>  (1952) 
(2S)-2-amino-3-((1S)-1-amino-2-(1H-indol-3-yl)ethylcarbonyloxy)propanoic acid

>  <TYPE>  (1952) 
Backbone

>  <CLASS>  (1952) 
alpha

>  <ANALOG>  (1952) 
Ser

>  <MOL_WT>  (1952) 
291.3070000000001

>  <LOGP>  (1952) 
-0.007199999999999485

>  <TPSA>  (1952) 
131.42999999999998

>  <POPULARITY>  (1952) 
3.8

>  <PROTECTED>  (1952) 
TRUE

>  <SMILES>  (1952) 
N[C@@H](COC(=O)[C@@H](N)Cc2(c[nH]c1(ccccc12)))C(=O)O

>  <INCHIKEY>  (1952) 
PAWPSMTXWOQIMI-QWRGUYRKSA-N

$$$$
Thr_OAsp
     RDKit          2D

 16 15  0  0  0  0  0  0  0  0999 V2000
   -1.4986   -1.4984    0.0000 N   0  0  0  0  0  0  0  0  0  0  0  0
   -2.4612   -0.3480    0.0000 C   0  0  0  0  0  0  0  0  0  0  0  0
   -1.9462    1.0608    0.0000 C   0  0  0  0  0  0  0  0  0  0  0  0
   -0.4686    1.3192    0.0000 O   0  0  0  0  0  0  0  0  0  0  0  0
    0.4939    0.1688    0.0000 C   0  0  0  0  0  0  0  0  0  0  0  0
   -0.0211   -1.2400    0.0000 O   0  0  0  0  0  0  0  0  0  0  0  0
    1.9715    0.4272    0.0000 C   0  0  0  0  0  0  0  0  0  0  0  0
    2.4865    1.8360    0.0000 N   0  0  0  0  0  0  0  0  0  0  0  0
    2.9341   -0.7232    0.0000 C   0  0  0  0  0  0  0  0  0  0  0  0
    4.4117   -0.4648    0.0000 C   0  0  0  0  0  0  0  0  0  0  0  0
    4.9267    0.9440    0.0000 O   0  0  0  0  0  0  0  0  0  0  0  0
    5.3742   -1.6152    0.0000 O   0  0  0  0  0  0  0  0  0  0  0  0
   -2.9088    2.2112    0.0000 C   0  0  0  0  0  0  0  0  0  0  0  0
   -3.9388   -0.6064    0.0000 C   0  0  0  0  0  0  0  0  0  0  0  0
   -4.9014    0.5440    0.0000 O   0  0  0  0  0  0  0  0  0  0  0  0
   -4.4538   -2.0152    0.0000 O   0  0  0  0  0  0  0  0  0  0  0  0
  2  1  1  6
  2  3  1  0
  3  4  1  0
  4  5  1  0
  5  6  2  0
  5  7  1  0
  7  8  1  1
  7  9  1  0
  9 10  1  0
 10 11  2  0
 10 12  1  0
  3 13  1  1
  2 14  1  0
 14 15  2  0
 14 16  1  0
M  END
>  <rName>  (1953) 
Thr_OAsp

>  <PQ_SYMBOL>  (1953) 
Thr_OAsp

>  <FULL_NAME>  (1953) 
(S)-3-amino-4-(((1S,2R)-1-amino-1-carboxypropan-2-yl)oxy)-4-oxobutanoic acid

>  <IUPAC_CONDENSED>  (1953) 
Thr(O-Asp)

>  <IUPAC>  (1953) 
(2S,3R)-2-amino-3-((1S)-1-amino-3-hydroxy-3-oxopropylcarbonyloxy)butanoic acid

>  <TYPE>  (1953) 
Backbone

>  <CLASS>  (1953) 
alpha

>  <ANALOG>  (1953) 
Thr

>  <MOL_WT>  (1953) 
234.20799999999997

>  <LOGP>  (1953) 
-1.8679999999999977

>  <TPSA>  (1953) 
152.94

>  <POPULARITY>  (1953) 
2.8

>  <PROTECTED>  (1953) 
TRUE

>  <SMILES>  (1953) 
N[C@@H]([C@H](OC(=O)[C@@H](N)CC(=O)O)C)C(=O)O

>  <INCHIKEY>  (1953) 
SQMGCUCFLOKZHF-IWGUZYHVSA-N

$$$$
Thr_OGlu
     RDKit          2D

 17 16  0  0  0  0  0  0  0  0999 V2000
   -1.7119   -1.4407    0.0000 N   0  0  0  0  0  0  0  0  0  0  0  0
   -2.8269   -0.4373    0.0000 C   0  0  0  0  0  0  0  0  0  0  0  0
   -2.5154    1.0300    0.0000 C   0  0  0  0  0  0  0  0  0  0  0  0
   -1.0890    1.4940    0.0000 O   0  0  0  0  0  0  0  0  0  0  0  0
    0.0260    0.4906    0.0000 C   0  0  0  0  0  0  0  0  0  0  0  0
   -0.2854   -0.9767    0.0000 O   0  0  0  0  0  0  0  0  0  0  0  0
    1.4525    0.9545    0.0000 C   0  0  0  0  0  0  0  0  0  0  0  0
    1.7639    2.4218    0.0000 N   0  0  0  0  0  0  0  0  0  0  0  0
    2.5675   -0.0489    0.0000 C   0  0  0  0  0  0  0  0  0  0  0  0
    3.9939    0.4151    0.0000 C   0  0  0  0  0  0  0  0  0  0  0  0
    5.1089   -0.5883    0.0000 C   0  0  0  0  0  0  0  0  0  0  0  0
    4.7975   -2.0556    0.0000 O   0  0  0  0  0  0  0  0  0  0  0  0
    6.5354   -0.1244    0.0000 O   0  0  0  0  0  0  0  0  0  0  0  0
   -3.6304    2.0334    0.0000 C   0  0  0  0  0  0  0  0  0  0  0  0
   -4.2533   -0.9012    0.0000 C   0  0  0  0  0  0  0  0  0  0  0  0
   -5.3683    0.1022    0.0000 O   0  0  0  0  0  0  0  0  0  0  0  0
   -4.5648   -2.3685    0.0000 O   0  0  0  0  0  0  0  0  0  0  0  0
  2  1  1  6
  2  3  1  0
  3  4  1  0
  4  5  1  0
  5  6  2  0
  5  7  1  0
  7  8  1  1
  7  9  1  0
  9 10  1  0
 10 11  1  0
 11 12  2  0
 11 13  1  0
  3 14  1  1
  2 15  1  0
 15 16  2  0
 15 17  1  0
M  END
>  <rName>  (1954) 
Thr_OGlu

>  <PQ_SYMBOL>  (1954) 
Thr_OGlu

>  <FULL_NAME>  (1954) 
(S)-4-amino-5-(((1S,2R)-1-amino-1-carboxypropan-2-yl)oxy)-5-oxopentanoic acid

>  <IUPAC_CONDENSED>  (1954) 
Thr(O-Glu)

>  <IUPAC>  (1954) 
(4S)-4-amino-4-((((2R,3S)-3-amino-4-hydroxy-4-oxobutan-2-yl)oxy)carbonyl)butanoic acid

>  <TYPE>  (1954) 
Backbone

>  <CLASS>  (1954) 
alpha

>  <ANALOG>  (1954) 
Thr

>  <MOL_WT>  (1954) 
248.23499999999996

>  <LOGP>  (1954) 
-1.4778999999999987

>  <TPSA>  (1954) 
152.94

>  <POPULARITY>  (1954) 
2.8

>  <PROTECTED>  (1954) 
TRUE

>  <SMILES>  (1954) 
N[C@@H]([C@H](OC(=O)[C@@H](N)CCC(=O)O)C)C(=O)O

>  <INCHIKEY>  (1954) 
BTXGIZJHHULWEI-ZDLURKLDSA-N

$$$$
Thr_OGln
     RDKit          2D

 17 16  0  0  0  0  0  0  0  0999 V2000
   -1.7119   -1.4407    0.0000 N   0  0  0  0  0  0  0  0  0  0  0  0
   -2.8269   -0.4373    0.0000 C   0  0  0  0  0  0  0  0  0  0  0  0
   -2.5154    1.0300    0.0000 C   0  0  0  0  0  0  0  0  0  0  0  0
   -1.0890    1.4940    0.0000 O   0  0  0  0  0  0  0  0  0  0  0  0
    0.0260    0.4906    0.0000 C   0  0  0  0  0  0  0  0  0  0  0  0
   -0.2854   -0.9767    0.0000 O   0  0  0  0  0  0  0  0  0  0  0  0
    1.4525    0.9545    0.0000 C   0  0  0  0  0  0  0  0  0  0  0  0
    1.7639    2.4218    0.0000 N   0  0  0  0  0  0  0  0  0  0  0  0
    2.5675   -0.0489    0.0000 C   0  0  0  0  0  0  0  0  0  0  0  0
    3.9939    0.4151    0.0000 C   0  0  0  0  0  0  0  0  0  0  0  0
    5.1089   -0.5883    0.0000 C   0  0  0  0  0  0  0  0  0  0  0  0
    4.7975   -2.0556    0.0000 O   0  0  0  0  0  0  0  0  0  0  0  0
    6.5354   -0.1244    0.0000 N   0  0  0  0  0  0  0  0  0  0  0  0
   -3.6304    2.0334    0.0000 C   0  0  0  0  0  0  0  0  0  0  0  0
   -4.2533   -0.9012    0.0000 C   0  0  0  0  0  0  0  0  0  0  0  0
   -5.3683    0.1022    0.0000 O   0  0  0  0  0  0  0  0  0  0  0  0
   -4.5648   -2.3685    0.0000 O   0  0  0  0  0  0  0  0  0  0  0  0
  2  1  1  6
  2  3  1  0
  3  4  1  0
  4  5  1  0
  5  6  2  0
  5  7  1  0
  7  8  1  1
  7  9  1  0
  9 10  1  0
 10 11  1  0
 11 12  2  0
 11 13  1  0
  3 14  1  1
  2 15  1  0
 15 16  2  0
 15 17  1  0
M  END
>  <rName>  (1955) 
Thr_OGln

>  <PQ_SYMBOL>  (1955) 
Thr_OGln

>  <FULL_NAME>  (1955) 
O-(L-glutaminyl)-L-threonine

>  <IUPAC_CONDENSED>  (1955) 
Thr(O-Gln)

>  <IUPAC>  (1955) 
(2S,3R)-2-amino-3-((1S)-1,4-diamino-4-oxobutylcarbonyloxy)butanoic acid

>  <TYPE>  (1955) 
Backbone

>  <CLASS>  (1955) 
alpha

>  <ANALOG>  (1955) 
Thr

>  <MOL_WT>  (1955) 
247.25099999999995

>  <LOGP>  (1955) 
-2.077199999999997

>  <TPSA>  (1955) 
158.73

>  <POPULARITY>  (1955) 
3.8

>  <PROTECTED>  (1955) 
TRUE

>  <SMILES>  (1955) 
N[C@@H]([C@H](OC(=O)[C@@H](N)CCC(=O)N)C)C(=O)O

>  <INCHIKEY>  (1955) 
BUWNPLBPFBHBJI-ZDLURKLDSA-N

$$$$
Thr_OHis
     RDKit          2D

 18 18  0  0  0  0  0  0  0  0999 V2000
   -2.2507   -1.5013    0.0000 N   0  0  0  0  0  0  0  0  0  0  0  0
   -3.2172   -0.3543    0.0000 C   0  0  0  0  0  0  0  0  0  0  0  0
   -2.7071    1.0563    0.0000 C   0  0  0  0  0  0  0  0  0  0  0  0
   -1.2305    1.3199    0.0000 O   0  0  0  0  0  0  0  0  0  0  0  0
   -0.2639    0.1728    0.0000 C   0  0  0  0  0  0  0  0  0  0  0  0
   -0.7740   -1.2378    0.0000 O   0  0  0  0  0  0  0  0  0  0  0  0
    1.2128    0.4364    0.0000 C   0  0  0  0  0  0  0  0  0  0  0  0
    1.7228    1.8470    0.0000 N   0  0  0  0  0  0  0  0  0  0  0  0
    2.1793   -0.7107    0.0000 C   0  0  0  0  0  0  0  0  0  0  0  0
    3.6560   -0.4471    0.0000 C   0  0  0  0  0  0  0  0  0  0  0  0
    4.7372   -1.4869    0.0000 C   0  0  0  0  0  0  0  0  0  0  0  0
    6.0601   -0.7799    0.0000 N   0  0  0  0  0  0  0  0  0  0  0  0
    5.7966    0.6968    0.0000 C   0  0  0  0  0  0  0  0  0  0  0  0
    4.3107    0.9024    0.0000 N   0  0  0  0  0  0  0  0  0  0  0  0
   -3.6737    2.2034    0.0000 C   0  0  0  0  0  0  0  0  0  0  0  0
   -4.6939   -0.6178    0.0000 C   0  0  0  0  0  0  0  0  0  0  0  0
   -5.6605    0.5292    0.0000 O   0  0  0  0  0  0  0  0  0  0  0  0
   -5.2040   -2.0284    0.0000 O   0  0  0  0  0  0  0  0  0  0  0  0
  2  1  1  6
  2  3  1  0
  3  4  1  0
  4  5  1  0
  5  6  2  0
  5  7  1  0
  7  8  1  1
  7  9  1  0
  9 10  1  0
 10 11  2  0
 11 12  1  0
 12 13  1  0
 13 14  2  0
  3 15  1  1
  2 16  1  0
 16 17  2  0
 16 18  1  0
 14 10  1  0
M  END
>  <rName>  (1956) 
Thr_OHis

>  <PQ_SYMBOL>  (1956) 
Thr_OHis

>  <FULL_NAME>  (1956) 
O-(L-histidyl)-L-threonine

>  <IUPAC_CONDENSED>  (1956) 
Thr(O-His)

>  <IUPAC>  (1956) 
(2S,3R)-2-amino-3-((1S)-1-amino-2-(1H-imidazol-4-yl)ethylcarbonyloxy)butanoic acid

>  <TYPE>  (1956) 
Backbone

>  <CLASS>  (1956) 
alpha

>  <ANALOG>  (1956) 
Thr

>  <MOL_WT>  (1956) 
256.262

>  <LOGP>  (1956) 
-1.376899999999999

>  <TPSA>  (1956) 
144.32

>  <POPULARITY>  (1956) 
2.2

>  <PROTECTED>  (1956) 
TRUE

>  <SMILES>  (1956) 
N[C@@H]([C@H](OC(=O)[C@@H](N)Cc1(c[nH]cn1))C)C(=O)O

>  <INCHIKEY>  (1956) 
PKLXWVCVNVHDQL-DTLFHODZSA-N

$$$$
Thr_OLys
     RDKit          2D

 17 16  0  0  0  0  0  0  0  0999 V2000
   -1.8868   -1.4863    0.0000 N   0  0  0  0  0  0  0  0  0  0  0  0
   -2.9970   -0.4777    0.0000 C   0  0  0  0  0  0  0  0  0  0  0  0
   -2.6786    0.9881    0.0000 C   0  0  0  0  0  0  0  0  0  0  0  0
   -1.2500    1.4453    0.0000 O   0  0  0  0  0  0  0  0  0  0  0  0
   -0.1397    0.4367    0.0000 C   0  0  0  0  0  0  0  0  0  0  0  0
   -0.4581   -1.0292    0.0000 O   0  0  0  0  0  0  0  0  0  0  0  0
    1.2889    0.8939    0.0000 C   0  0  0  0  0  0  0  0  0  0  0  0
    1.6073    2.3597    0.0000 N   0  0  0  0  0  0  0  0  0  0  0  0
    2.3991   -0.1148    0.0000 C   0  0  0  0  0  0  0  0  0  0  0  0
    3.8278    0.3424    0.0000 C   0  0  0  0  0  0  0  0  0  0  0  0
    4.9380   -0.6662    0.0000 C   0  0  0  0  0  0  0  0  0  0  0  0
    6.3666   -0.2091    0.0000 C   0  0  0  0  0  0  0  0  0  0  0  0
    7.4769   -1.2177    0.0000 N   0  0  0  0  0  0  0  0  0  0  0  0
   -3.7889    1.9968    0.0000 C   0  0  0  0  0  0  0  0  0  0  0  0
   -4.4256   -0.9349    0.0000 C   0  0  0  0  0  0  0  0  0  0  0  0
   -5.5359    0.0738    0.0000 O   0  0  0  0  0  0  0  0  0  0  0  0
   -4.7440   -2.4007    0.0000 O   0  0  0  0  0  0  0  0  0  0  0  0
  2  1  1  6
  2  3  1  0
  3  4  1  0
  4  5  1  0
  5  6  2  0
  5  7  1  0
  7  8  1  1
  7  9  1  0
  9 10  1  0
 10 11  1  0
 11 12  1  0
 12 13  1  0
  3 14  1  1
  2 15  1  0
 15 16  2  0
 15 17  1  0
M  END
>  <rName>  (1957) 
Thr_OLys

>  <PQ_SYMBOL>  (1957) 
Thr_OLys

>  <FULL_NAME>  (1957) 
O-(L-lysyl)-L-threonine

>  <IUPAC_CONDENSED>  (1957) 
Thr(O-Lys)

>  <IUPAC>  (1957) 
(2S,3R)-2-amino-3-((1S)-1,5-diaminopentylcarbonyloxy)butanoic acid

>  <TYPE>  (1957) 
Backbone

>  <CLASS>  (1957) 
alpha

>  <ANALOG>  (1957) 
Thr

>  <MOL_WT>  (1957) 
247.29499999999993

>  <LOGP>  (1957) 
-1.2136999999999973

>  <TPSA>  (1957) 
141.66

>  <POPULARITY>  (1957) 
3.3

>  <PROTECTED>  (1957) 
TRUE

>  <SMILES>  (1957) 
N[C@@H]([C@H](OC(=O)[C@@H](N)CCCCN)C)C(=O)O

>  <INCHIKEY>  (1957) 
YXWOQGIBMMTCMO-CSMHCCOUSA-N

$$$$
Thr_OTrp
     RDKit          2D

 22 23  0  0  0  0  0  0  0  0999 V2000
   -3.1917    1.5277    0.0000 N   0  0  0  0  0  0  0  0  0  0  0  0
   -4.3335    0.5549    0.0000 C   0  0  0  0  0  0  0  0  0  0  0  0
   -4.0620   -0.9203    0.0000 C   0  0  0  0  0  0  0  0  0  0  0  0
   -2.6486   -1.4228    0.0000 O   0  0  0  0  0  0  0  0  0  0  0  0
   -1.5068   -0.4500    0.0000 C   0  0  0  0  0  0  0  0  0  0  0  0
   -1.7783    1.0252    0.0000 O   0  0  0  0  0  0  0  0  0  0  0  0
   -0.0935   -0.9525    0.0000 C   0  0  0  0  0  0  0  0  0  0  0  0
    0.1780   -2.4277    0.0000 N   0  0  0  0  0  0  0  0  0  0  0  0
    1.0483    0.0203    0.0000 C   0  0  0  0  0  0  0  0  0  0  0  0
    2.4617   -0.4822    0.0000 C   0  0  0  0  0  0  0  0  0  0  0  0
    2.8859   -1.9210    0.0000 C   0  0  0  0  0  0  0  0  0  0  0  0
    4.3854   -1.9621    0.0000 N   0  0  0  0  0  0  0  0  0  0  0  0
    4.8878   -0.5487    0.0000 C   0  0  0  0  0  0  0  0  0  0  0  0
    6.2743    0.0236    0.0000 C   0  0  0  0  0  0  0  0  0  0  0  0
    6.4720    1.5105    0.0000 C   0  0  0  0  0  0  0  0  0  0  0  0
    5.2831    2.4251    0.0000 C   0  0  0  0  0  0  0  0  0  0  0  0
    3.8966    1.8528    0.0000 C   0  0  0  0  0  0  0  0  0  0  0  0
    3.6989    0.3659    0.0000 C   0  0  0  0  0  0  0  0  0  0  0  0
   -5.2038   -1.8931    0.0000 C   0  0  0  0  0  0  0  0  0  0  0  0
   -5.7468    1.0574    0.0000 C   0  0  0  0  0  0  0  0  0  0  0  0
   -6.8887    0.0846    0.0000 O   0  0  0  0  0  0  0  0  0  0  0  0
   -6.0184    2.5326    0.0000 O   0  0  0  0  0  0  0  0  0  0  0  0
  2  1  1  1
  2  3  1  0
  3  4  1  0
  4  5  1  0
  5  6  2  0
  5  7  1  0
  7  8  1  6
  7  9  1  0
  9 10  1  0
 10 11  2  0
 11 12  1  0
 12 13  1  0
 13 14  2  0
 14 15  1  0
 15 16  2  0
 16 17  1  0
 17 18  2  0
  3 19  1  6
  2 20  1  0
 20 21  2  0
 20 22  1  0
 18 13  1  0
 18 10  1  0
M  END
>  <rName>  (1958) 
Thr_OTrp

>  <PQ_SYMBOL>  (1958) 
Thr_OTrp

>  <FULL_NAME>  (1958) 
O-(L-tryptophyl)-L-threonine

>  <IUPAC_CONDENSED>  (1958) 
Thr(O-Trp)

>  <IUPAC>  (1958) 
(2S,3R)-2-amino-3-((1S)-1-amino-2-(1H-indol-3-yl)ethylcarbonyloxy)butanoic acid

>  <TYPE>  (1958) 
Backbone

>  <CLASS>  (1958) 
alpha

>  <ANALOG>  (1958) 
Thr

>  <MOL_WT>  (1958) 
305.33400000000006

>  <LOGP>  (1958) 
0.38130000000000036

>  <TPSA>  (1958) 
131.42999999999998

>  <POPULARITY>  (1958) 
3.8

>  <PROTECTED>  (1958) 
TRUE

>  <SMILES>  (1958) 
N[C@@H]([C@H](OC(=O)[C@@H](N)Cc2(c[nH]c1(ccccc12)))C)C(=O)O

>  <INCHIKEY>  (1958) 
PBUAOWPNXMSGKY-WLTAIBSBSA-N

$$$$
THIQ3-bAla
     RDKit          2D

 14 15  0  0  0  0  0  0  0  0999 V2000
   -0.9977    1.0836    0.0000 N   0  0  0  0  0  0  0  0  0  0  0  0
   -1.1667   -0.4068    0.0000 C   0  0  0  0  0  0  0  0  0  0  0  0
    0.0395   -1.2984    0.0000 C   0  0  0  0  0  0  0  0  0  0  0  0
    1.4148   -0.6996    0.0000 C   0  0  0  0  0  0  0  0  0  0  0  0
    2.6210   -1.5912    0.0000 C   0  0  0  0  0  0  0  0  0  0  0  0
    3.9963   -0.9924    0.0000 C   0  0  0  0  0  0  0  0  0  0  0  0
    4.1654    0.4980    0.0000 C   0  0  0  0  0  0  0  0  0  0  0  0
    2.9591    1.3897    0.0000 C   0  0  0  0  0  0  0  0  0  0  0  0
    1.5838    0.7908    0.0000 C   0  0  0  0  0  0  0  0  0  0  0  0
    0.3776    1.6825    0.0000 C   0  0  0  0  0  0  0  0  0  0  0  0
   -2.5420   -1.0056    0.0000 C   0  0  0  0  0  0  0  0  0  0  0  0
   -3.7483   -0.1140    0.0000 C   0  0  0  0  0  0  0  0  0  0  0  0
   -3.5792    1.3764    0.0000 O   0  0  0  0  0  0  0  0  0  0  0  0
   -5.1235   -0.7129    0.0000 O   0  0  0  0  0  0  0  0  0  0  0  0
  1  2  1  0
  2  3  1  0
  3  4  1  0
  4  5  2  0
  5  6  1  0
  6  7  2  0
  7  8  1  0
  8  9  2  0
  9 10  1  0
  2 11  1  0
 11 12  1  0
 12 13  2  0
 12 14  1  0
  9  4  1  0
 10  1  1  0
M  END
>  <rName>  (1959) 
THIQ3-bAla

>  <PQ_SYMBOL>  (1959) 
THIQ3-bAla

>  <FULL_NAME>  (1959) 
2-(1,2,3,4-tetrahydroisoquinolin-3-yl)acetic acid

>  <IUPAC_CONDENSED>  (1959) 
THIQ(3)-bAla

>  <IUPAC>  (1959) 
2-(3-azabicyclo[4.4.0]deca-1(10),6,8-trien-4-yl)acetic acid

>  <TYPE>  (1959) 
Backbone

>  <CLASS>  (1959) 
beta

>  <ANALOG>  (1959) 
Pro

>  <MOL_WT>  (1959) 
191.22999999999993

>  <LOGP>  (1959) 
1.1756

>  <TPSA>  (1959) 
49.33

>  <POPULARITY>  (1959) 
7.1

>  <PROTECTED>  (1959) 
TRUE

>  <SMILES>  (1959) 
N2C(Cc1(ccccc1C2))CC(=O)O

>  <INCHIKEY>  (1959) 
QYYIBCOJRFOBDJ-UHFFFAOYSA-N

$$$$
bAla_33piperidyl
     RDKit          2D

 12 12  0  0  0  0  0  0  0  0999 V2000
   -1.0786   -1.8814    0.0000 N   0  0  0  0  0  0  0  0  0  0  0  0
   -0.6074   -0.4573    0.0000 C   0  0  0  0  0  0  0  0  0  0  0  0
    0.8615   -0.1534    0.0000 C   0  0  0  0  0  0  0  0  0  0  0  0
    1.3327    1.2707    0.0000 C   0  0  0  0  0  0  0  0  0  0  0  0
    2.8016    1.5746    0.0000 C   0  0  0  0  0  0  0  0  0  0  0  0
    3.7992    0.4545    0.0000 C   0  0  0  0  0  0  0  0  0  0  0  0
    3.3280   -0.9696    0.0000 N   0  0  0  0  0  0  0  0  0  0  0  0
    1.8591   -1.2735    0.0000 C   0  0  0  0  0  0  0  0  0  0  0  0
   -1.6051    0.6628    0.0000 C   0  0  0  0  0  0  0  0  0  0  0  0
   -3.0740    0.3588    0.0000 C   0  0  0  0  0  0  0  0  0  0  0  0
   -3.5452   -1.0652    0.0000 O   0  0  0  0  0  0  0  0  0  0  0  0
   -4.0716    1.4790    0.0000 O   0  0  0  0  0  0  0  0  0  0  0  0
  1  2  1  0
  2  3  1  0
  3  4  1  0
  4  5  1  0
  5  6  1  0
  6  7  1  0
  7  8  1  0
  2  9  1  0
  9 10  1  0
 10 11  2  0
 10 12  1  0
  8  3  1  0
M  END
>  <rName>  (1960) 
bAla_33piperidyl

>  <PQ_SYMBOL>  (1960) 
bAla_33piperidyl

>  <FULL_NAME>  (1960) 
3-amino-3-(piperidin-3-yl)propanoic acid

>  <IUPAC_CONDENSED>  (1960) 
bAla(3-3-piperidyl)

>  <IUPAC>  (1960) 
3-amino-3-(piperidin-3-yl)propanoic acid

>  <TYPE>  (1960) 
Backbone

>  <CLASS>  (1960) 
beta

>  <ANALOG>  (1960) 
X

>  <MOL_WT>  (1960) 
172.228

>  <LOGP>  (1960) 
-0.21200000000000047

>  <TPSA>  (1960) 
75.35

>  <POPULARITY>  (1960) 
6.3

>  <PROTECTED>  (1960) 
TRUE

>  <SMILES>  (1960) 
NC(C1(CCCNC1))CC(=O)O

>  <INCHIKEY>  (1960) 
FCSMSPXYPGWLDU-UHFFFAOYSA-N

$$$$
D-Lys_biotinyl
     RDKit          2D

 25 26  0  0  0  0  0  0  0  0999 V2000
   -8.6944   -1.4032    0.0000 N   0  0  0  0  0  0  0  0  0  0  0  0
   -8.4746    0.0806    0.0000 C   0  0  0  0  0  0  0  0  0  0  0  0
   -7.0796    0.6321    0.0000 C   0  0  0  0  0  0  0  0  0  0  0  0
   -5.9045   -0.3001    0.0000 C   0  0  0  0  0  0  0  0  0  0  0  0
   -4.5096    0.2514    0.0000 C   0  0  0  0  0  0  0  0  0  0  0  0
   -3.3345   -0.6809    0.0000 C   0  0  0  0  0  0  0  0  0  0  0  0
   -1.9396   -0.1293    0.0000 N   0  0  0  0  0  0  0  0  0  0  0  0
   -0.7645   -1.0616    0.0000 C   0  0  0  0  0  0  0  0  0  0  0  0
   -0.9843   -2.5454    0.0000 O   0  0  0  0  0  0  0  0  0  0  0  0
    0.6305   -0.5101    0.0000 C   0  0  0  0  0  0  0  0  0  0  0  0
    1.8056   -1.4423    0.0000 C   0  0  0  0  0  0  0  0  0  0  0  0
    3.2005   -0.8908    0.0000 C   0  0  0  0  0  0  0  0  0  0  0  0
    4.3756   -1.8231    0.0000 C   0  0  0  0  0  0  0  0  0  0  0  0
    5.7705   -1.2715    0.0000 C   0  0  0  0  0  0  0  0  0  0  0  0
    7.0366   -2.0759    0.0000 S   0  0  0  0  0  0  0  0  0  0  0  0
    8.1928   -1.1203    0.0000 C   0  0  0  0  0  0  0  0  0  0  0  0
    7.6413    0.2746    0.0000 C   0  0  0  0  0  0  0  0  0  0  0  0
    8.0150    1.7273    0.0000 N   0  0  0  0  0  0  0  0  0  0  0  0
    6.7489    2.5317    0.0000 C   0  0  0  0  0  0  0  0  0  0  0  0
    6.6554    4.0288    0.0000 O   0  0  0  0  0  0  0  0  0  0  0  0
    5.5927    1.5761    0.0000 N   0  0  0  0  0  0  0  0  0  0  0  0
    6.1442    0.1812    0.0000 C   0  0  0  0  0  0  0  0  0  0  0  0
   -9.6497    1.0129    0.0000 C   0  0  0  0  0  0  0  0  0  0  0  0
   -9.4298    2.4967    0.0000 O   0  0  0  0  0  0  0  0  0  0  0  0
  -11.0446    0.4613    0.0000 O   0  0  0  0  0  0  0  0  0  0  0  0
  2  1  1  1
  2  3  1  0
  3  4  1  0
  4  5  1  0
  5  6  1  0
  6  7  1  0
  7  8  1  0
  8  9  2  0
  8 10  1  0
 10 11  1  0
 11 12  1  0
 12 13  1  0
 14 13  1  1
 14 15  1  0
 15 16  1  0
 17 16  1  1
 17 18  1  0
 18 19  1  0
 19 20  2  0
 19 21  1  0
 22 21  1  1
  2 23  1  0
 23 24  2  0
 23 25  1  0
 22 14  1  0
 22 17  1  0
M  END
>  <rName>  (1961) 
D-Lys_biotinyl

>  <PQ_SYMBOL>  (1961) 
D-Lys_biotinyl

>  <FULL_NAME>  (1961) 
N6-(5-((3aS,4S,6aR)-2-oxohexahydro-1H-thieno[3,4-d]imidazol-4-yl)pentanoyl)-D-lysine

>  <IUPAC_CONDENSED>  (1961) 
D-Lys(biotinyl)

>  <IUPAC>  (1961) 
(2R)-2-amino-6-(4-((1S,2S,5R)-7-oxo-3-thia-6,8-diazabicyclo[3.3.0]octan-2-yl)butylcarbonylamino)hexanoic acid

>  <TYPE>  (1961) 
Backbone

>  <CLASS>  (1961) 
alpha

>  <ANALOG>  (1961) 
Arg

>  <MOL_WT>  (1961) 
372.49100000000004

>  <LOGP>  (1961) 
0.41060000000000124

>  <TPSA>  (1961) 
133.54999999999998

>  <POPULARITY>  (1961) 
3.3

>  <PROTECTED>  (1961) 
TRUE

>  <SMILES>  (1961) 
N[C@H](CCCCNC(=O)CCCC[C@@H]1SC[C@@H]2NC(=O)N[C@@H]21)C(=O)O

>  <INCHIKEY>  (1961) 
BAQMYDQNMFBZNA-UHXUPSOCSA-N

$$$$
D-Lys_nicotinoyl
     RDKit          2D

 18 18  0  0  0  0  0  0  0  0999 V2000
   -5.2698   -1.7320    0.0000 N   0  0  0  0  0  0  0  0  0  0  0  0
   -5.1566   -0.2362    0.0000 C   0  0  0  0  0  0  0  0  0  0  0  0
   -3.8046    0.4135    0.0000 C   0  0  0  0  0  0  0  0  0  0  0  0
   -2.5659   -0.4325    0.0000 C   0  0  0  0  0  0  0  0  0  0  0  0
   -1.2139    0.2173    0.0000 C   0  0  0  0  0  0  0  0  0  0  0  0
    0.0248   -0.6287    0.0000 C   0  0  0  0  0  0  0  0  0  0  0  0
    1.3767    0.0211    0.0000 N   0  0  0  0  0  0  0  0  0  0  0  0
    2.6154   -0.8249    0.0000 C   0  0  0  0  0  0  0  0  0  0  0  0
    2.5021   -2.3206    0.0000 O   0  0  0  0  0  0  0  0  0  0  0  0
    3.9674   -0.1751    0.0000 C   0  0  0  0  0  0  0  0  0  0  0  0
    4.0807    1.3206    0.0000 C   0  0  0  0  0  0  0  0  0  0  0  0
    5.4326    1.9703    0.0000 C   0  0  0  0  0  0  0  0  0  0  0  0
    6.6713    1.1244    0.0000 C   0  0  0  0  0  0  0  0  0  0  0  0
    6.5580   -0.3713    0.0000 N   0  0  0  0  0  0  0  0  0  0  0  0
    5.2061   -1.0211    0.0000 C   0  0  0  0  0  0  0  0  0  0  0  0
   -6.3952    0.6097    0.0000 C   0  0  0  0  0  0  0  0  0  0  0  0
   -6.2820    2.1054    0.0000 O   0  0  0  0  0  0  0  0  0  0  0  0
   -7.7472   -0.0400    0.0000 O   0  0  0  0  0  0  0  0  0  0  0  0
  2  1  1  1
  2  3  1  0
  3  4  1  0
  4  5  1  0
  5  6  1  0
  6  7  1  0
  7  8  1  0
  8  9  2  0
  8 10  1  0
 10 11  2  0
 11 12  1  0
 12 13  2  0
 13 14  1  0
 14 15  2  0
  2 16  1  0
 16 17  2  0
 16 18  1  0
 15 10  1  0
M  END
>  <rName>  (1962) 
D-Lys_nicotinoyl

>  <PQ_SYMBOL>  (1962) 
D-Lys_nicotinoyl

>  <FULL_NAME>  (1962) 
N6-nicotinoyl-D-lysine

>  <IUPAC_CONDENSED>  (1962) 
D-Lys(nicotinoyl)

>  <IUPAC>  (1962) 
(2R)-2-amino-6-(pyridin-3-ylcarbonylamino)hexanoic acid

>  <TYPE>  (1962) 
Backbone

>  <CLASS>  (1962) 
alpha

>  <ANALOG>  (1962) 
Lys

>  <MOL_WT>  (1962) 
251.28600000000003

>  <LOGP>  (1962) 
0.39359999999999906

>  <TPSA>  (1962) 
105.30999999999999

>  <POPULARITY>  (1962) 
4.6

>  <PROTECTED>  (1962) 
TRUE

>  <SMILES>  (1962) 
N[C@H](CCCCNC(=O)c1cccnc1)C(=O)O

>  <INCHIKEY>  (1962) 
GPGQRQZBZHOSJY-SNVBAGLBSA-N

$$$$
Asn_Bn_24_6triOMe
     RDKit          2D

 22 22  0  0  0  0  0  0  0  0999 V2000
   -5.0893   -1.7992    0.0000 N   0  0  0  0  0  0  0  0  0  0  0  0
   -4.9126   -0.3097    0.0000 C   0  0  0  0  0  0  0  0  0  0  0  0
   -3.5342    0.2820    0.0000 C   0  0  0  0  0  0  0  0  0  0  0  0
   -2.3326   -0.6158    0.0000 C   0  0  0  0  0  0  0  0  0  0  0  0
   -2.5093   -2.1054    0.0000 O   0  0  0  0  0  0  0  0  0  0  0  0
   -0.9542   -0.0241    0.0000 N   0  0  0  0  0  0  0  0  0  0  0  0
    0.2474   -0.9219    0.0000 C   0  0  0  0  0  0  0  0  0  0  0  0
    1.6257   -0.3302    0.0000 C   0  0  0  0  0  0  0  0  0  0  0  0
    1.8025    1.1593    0.0000 C   0  0  0  0  0  0  0  0  0  0  0  0
    0.6009    2.0572    0.0000 O   0  0  0  0  0  0  0  0  0  0  0  0
    0.7776    3.5467    0.0000 C   0  0  0  0  0  0  0  0  0  0  0  0
    3.1808    1.7510    0.0000 C   0  0  0  0  0  0  0  0  0  0  0  0
    4.3825    0.8532    0.0000 C   0  0  0  0  0  0  0  0  0  0  0  0
    5.7608    1.4449    0.0000 O   0  0  0  0  0  0  0  0  0  0  0  0
    6.9624    0.5471    0.0000 C   0  0  0  0  0  0  0  0  0  0  0  0
    4.2057   -0.6363    0.0000 C   0  0  0  0  0  0  0  0  0  0  0  0
    2.8274   -1.2281    0.0000 C   0  0  0  0  0  0  0  0  0  0  0  0
    2.6506   -2.7176    0.0000 O   0  0  0  0  0  0  0  0  0  0  0  0
    3.8522   -3.6154    0.0000 C   0  0  0  0  0  0  0  0  0  0  0  0
   -6.1142    0.5881    0.0000 C   0  0  0  0  0  0  0  0  0  0  0  0
   -5.9375    2.0777    0.0000 O   0  0  0  0  0  0  0  0  0  0  0  0
   -7.4926   -0.0036    0.0000 O   0  0  0  0  0  0  0  0  0  0  0  0
  2  1  1  6
  2  3  1  0
  3  4  1  0
  4  5  2  0
  4  6  1  0
  6  7  1  0
  7  8  1  0
  8  9  2  0
  9 10  1  0
 10 11  1  0
  9 12  1  0
 12 13  2  0
 13 14  1  0
 14 15  1  0
 13 16  1  0
 16 17  2  0
 17 18  1  0
 18 19  1  0
  2 20  1  0
 20 21  2  0
 20 22  1  0
 17  8  1  0
M  END
>  <rName>  (1963) 
Asn_Bn_24_6triOMe

>  <PQ_SYMBOL>  (1963) 
Asn_Bn_24_6triOMe

>  <FULL_NAME>  (1963) 
N4-(2,4,6-trimethoxybenzyl)-L-asparagine

>  <IUPAC_CONDENSED>  (1963) 
Asn(Bn(2,4,6-triOMe))

>  <IUPAC>  (1963) 
(2S)-2-amino-3-(((2,4,6-trimethoxyphenyl)methyl)carbamoyl)propanoic acid

>  <TYPE>  (1963) 
Backbone

>  <CLASS>  (1963) 
alpha

>  <ANALOG>  (1963) 
Asn

>  <MOL_WT>  (1963) 
312.32200000000006

>  <LOGP>  (1963) 
0.13059999999999977

>  <TPSA>  (1963) 
120.11000000000003

>  <POPULARITY>  (1963) 
2.5

>  <PROTECTED>  (1963) 
TRUE

>  <SMILES>  (1963) 
N[C@@H](CC(=O)NCc1(c(OC)cc(OC)cc1OC))C(=O)O

>  <INCHIKEY>  (1963) 
KLGXGTMVEJCFQW-JTQLQIEISA-N

$$$$
a2-carboxyethyla2-carboxyethylGaba
     RDKit          2D

 17 16  0  0  0  0  0  0  0  0999 V2000
   -0.8426   -1.5875    0.0000 N   0  0  0  0  0  0  0  0  0  0  0  0
   -0.3749   -0.1622    0.0000 C   0  0  0  0  0  0  0  0  0  0  0  0
   -1.8002    0.3054    0.0000 C   0  0  0  0  0  0  0  0  0  0  0  0
   -2.9178   -0.6950    0.0000 C   0  0  0  0  0  0  0  0  0  0  0  0
   -4.3430   -0.2274    0.0000 C   0  0  0  0  0  0  0  0  0  0  0  0
   -4.6506    1.2407    0.0000 O   0  0  0  0  0  0  0  0  0  0  0  0
   -5.4606   -1.2278    0.0000 O   0  0  0  0  0  0  0  0  0  0  0  0
    1.0503   -0.6299    0.0000 C   0  0  0  0  0  0  0  0  0  0  0  0
    1.3579   -2.0980    0.0000 C   0  0  0  0  0  0  0  0  0  0  0  0
    2.7832   -2.5657    0.0000 C   0  0  0  0  0  0  0  0  0  0  0  0
    3.9008   -1.5652    0.0000 O   0  0  0  0  0  0  0  0  0  0  0  0
    3.0908   -4.0338    0.0000 O   0  0  0  0  0  0  0  0  0  0  0  0
    0.0927    1.2630    0.0000 C   0  0  0  0  0  0  0  0  0  0  0  0
    1.5609    1.5706    0.0000 C   0  0  0  0  0  0  0  0  0  0  0  0
    2.0285    2.9958    0.0000 C   0  0  0  0  0  0  0  0  0  0  0  0
    1.0280    4.1135    0.0000 O   0  0  0  0  0  0  0  0  0  0  0  0
    3.4966    3.3035    0.0000 O   0  0  0  0  0  0  0  0  0  0  0  0
  1  2  1  0
  2  3  1  0
  3  4  1  0
  4  5  1  0
  5  6  2  0
  5  7  1  0
  2  8  1  0
  8  9  1  0
  9 10  1  0
 10 11  2  0
 10 12  1  0
  2 13  1  0
 13 14  1  0
 14 15  1  0
 15 16  2  0
 15 17  1  0
M  END
>  <rName>  (1964) 
a2-carboxyethyla2-carboxyethylGaba

>  <PQ_SYMBOL>  (1964) 
a2-carboxyethyla2-carboxyethylGaba

>  <FULL_NAME>  (1964) 
4-amino-4-(2-carboxyethyl)heptanedioic acid

>  <IUPAC_CONDENSED>  (1964) 
a2-carboxyethyla2-carboxyethylGaba

>  <IUPAC>  (1964) 
4-amino-4-(3-hydroxy-3-oxopropyl)heptanedioic acid

>  <TYPE>  (1964) 
Backbone

>  <CLASS>  (1964) 
gamma

>  <ANALOG>  (1964) 
Glu

>  <MOL_WT>  (1964) 
247.24699999999996

>  <LOGP>  (1964) 
0.27829999999999927

>  <TPSA>  (1964) 
137.92000000000002

>  <POPULARITY>  (1964) 
5.4

>  <PROTECTED>  (1964) 
TRUE

>  <SMILES>  (1964) 
NC(CCC(=O)O)(CCC(=O)O)CCC(=O)O

>  <INCHIKEY>  (1964) 
UOPIUZMVWLTGPP-UHFFFAOYSA-N

$$$$
bAla_3RFmoc
     RDKit          2D

 23 25  0  0  0  0  0  0  0  0999 V2000
   -3.7251    1.2614    0.0000 N   0  0  0  0  0  0  0  0  0  0  0  0
   -3.7987   -0.2368    0.0000 C   0  0  0  0  0  0  0  0  0  0  0  0
   -2.5381   -1.0497    0.0000 C   0  0  0  0  0  0  0  0  0  0  0  0
   -2.6117   -2.5479    0.0000 O   0  0  0  0  0  0  0  0  0  0  0  0
   -1.2038   -0.3643    0.0000 O   0  0  0  0  0  0  0  0  0  0  0  0
    0.0569   -1.1772    0.0000 C   0  0  0  0  0  0  0  0  0  0  0  0
    1.3912   -0.4918    0.0000 C   0  0  0  0  0  0  0  0  0  0  0  0
    2.7299   -1.1685    0.0000 C   0  0  0  0  0  0  0  0  0  0  0  0
    3.1228   -2.6161    0.0000 C   0  0  0  0  0  0  0  0  0  0  0  0
    4.5730   -2.9996    0.0000 C   0  0  0  0  0  0  0  0  0  0  0  0
    5.6302   -1.9355    0.0000 C   0  0  0  0  0  0  0  0  0  0  0  0
    5.2372   -0.4878    0.0000 C   0  0  0  0  0  0  0  0  0  0  0  0
    3.7871   -0.1043    0.0000 C   0  0  0  0  0  0  0  0  0  0  0  0
    3.1017    1.2299    0.0000 C   0  0  0  0  0  0  0  0  0  0  0  0
    3.6347    2.6321    0.0000 C   0  0  0  0  0  0  0  0  0  0  0  0
    2.6869    3.7947    0.0000 C   0  0  0  0  0  0  0  0  0  0  0  0
    1.2062    3.5552    0.0000 C   0  0  0  0  0  0  0  0  0  0  0  0
    0.6732    2.1531    0.0000 C   0  0  0  0  0  0  0  0  0  0  0  0
    1.6210    0.9905    0.0000 C   0  0  0  0  0  0  0  0  0  0  0  0
   -5.1330   -0.9222    0.0000 C   0  0  0  0  0  0  0  0  0  0  0  0
   -6.3937   -0.1093    0.0000 C   0  0  0  0  0  0  0  0  0  0  0  0
   -6.3201    1.3889    0.0000 O   0  0  0  0  0  0  0  0  0  0  0  0
   -7.7280   -0.7947    0.0000 O   0  0  0  0  0  0  0  0  0  0  0  0
  2  1  1  6
  2  3  1  0
  3  4  2  0
  3  5  1  0
  5  6  1  0
  6  7  1  0
  7  8  1  0
  8  9  2  0
  9 10  1  0
 10 11  2  0
 11 12  1  0
 12 13  2  0
 13 14  1  0
 14 15  2  0
 15 16  1  0
 16 17  2  0
 17 18  1  0
 18 19  2  0
  2 20  1  0
 20 21  1  0
 21 22  2  0
 21 23  1  0
 13  8  1  0
 19 14  1  0
 19  7  1  0
M  END
>  <rName>  (1965) 
bAla_3RFmoc

>  <PQ_SYMBOL>  (1965) 
bAla_3RFmoc

>  <FULL_NAME>  (1965) 
(S)-4-((9H-fluoren-9-yl)methoxy)-3-amino-4-oxobutanoic acid

>  <IUPAC_CONDENSED>  (1965) 
bAla(3R-Fmoc)

>  <IUPAC>  (1965) 
(3S)-3-amino-3-((((tricyclo[7.4.0.0^{2,7}]trideca-1(13),2,4,6,9,11-hexaen-8-yl)methyl)oxy)carbonyl)propanoic acid

>  <TYPE>  (1965) 
Backbone

>  <CLASS>  (1965) 
beta

>  <ANALOG>  (1965) 
X

>  <MOL_WT>  (1965) 
311.3370000000001

>  <LOGP>  (1965) 
2.1440999999999995

>  <TPSA>  (1965) 
89.62000000000002

>  <POPULARITY>  (1965) 
5.1

>  <PROTECTED>  (1965) 
TRUE

>  <SMILES>  (1965) 
N[C@H](C(=O)OCC3(c1(ccccc1c2(ccccc23))))CC(=O)O

>  <INCHIKEY>  (1965) 
ZCSOMAPTJXAFAD-INIZCTEOSA-N

$$$$
aBuGaba_3SOH
     RDKit          2D

 12 11  0  0  0  0  0  0  0  0999 V2000
   -1.0998    2.3671    0.0000 N   0  0  0  0  0  0  0  0  0  0  0  0
   -1.0889    0.8671    0.0000 C   0  0  0  0  0  0  0  0  0  0  0  0
   -2.3824    0.1077    0.0000 C   0  0  0  0  0  0  0  0  0  0  0  0
   -3.6869    0.8482    0.0000 C   0  0  0  0  0  0  0  0  0  0  0  0
   -2.3715   -1.3923    0.0000 C   0  0  0  0  0  0  0  0  0  0  0  0
   -1.0670   -2.1328    0.0000 C   0  0  0  0  0  0  0  0  0  0  0  0
    0.2156    0.1266    0.0000 C   0  0  0  0  0  0  0  0  0  0  0  0
    0.2265   -1.3734    0.0000 O   0  0  0  0  0  0  0  0  0  0  0  0
    1.5091    0.8860    0.0000 C   0  0  0  0  0  0  0  0  0  0  0  0
    2.8136    0.1455    0.0000 C   0  0  0  0  0  0  0  0  0  0  0  0
    2.8245   -1.3545    0.0000 O   0  0  0  0  0  0  0  0  0  0  0  0
    4.1071    0.9049    0.0000 O   0  0  0  0  0  0  0  0  0  0  0  0
  2  1  1  6
  2  3  1  0
  3  4  1  6
  3  5  1  0
  5  6  1  0
  2  7  1  0
  7  8  1  6
  7  9  1  0
  9 10  1  0
 10 11  2  0
 10 12  1  0
M  END
>  <rName>  (1966) 
aBuGaba_3SOH

>  <PQ_SYMBOL>  (1966) 
aBuGaba_3SOH

>  <FULL_NAME>  (1966) 
(3S,4S,5S)-4-amino-3-hydroxy-5-methylheptanoic acid

>  <IUPAC_CONDENSED>  (1966) 
aBuGaba(3S-OH)

>  <IUPAC>  (1966) 
(3S,4S,5S)-4-amino-3-hydroxy-5-methylheptanoic acid

>  <TYPE>  (1966) 
Backbone

>  <CLASS>  (1966) 
gamma

>  <ANALOG>  (1966) 
Ile

>  <MOL_WT>  (1966) 
175.22799999999998

>  <LOGP>  (1966) 
0.19539999999999957

>  <TPSA>  (1966) 
83.55

>  <POPULARITY>  (1966) 
7

>  <PROTECTED>  (1966) 
TRUE

>  <SMILES>  (1966) 
N[C@@H]([C@@H](C)CC)[C@@H](O)CC(=O)O

>  <INCHIKEY>  (1966) 
NUOADXFOULDPJQ-HAFWLYHUSA-N

$$$$
Phe_a_bdehydro_E
     RDKit          2D

 12 12  0  0  0  0  0  0  0  0999 V2000
   -3.2476   -1.5000    0.0000 N   0  0  0  0  0  0  0  0  0  0  0  0
   -1.9486   -0.7500    0.0000 C   0  0  0  0  0  0  0  0  0  0  0  0
   -0.6495   -1.5000    0.0000 C   0  0  0  0  0  0  0  0  0  0  0  0
    0.6495   -0.7500    0.0000 C   0  0  0  0  0  0  0  0  0  0  0  0
    0.6495    0.7500    0.0000 C   0  0  0  0  0  0  0  0  0  0  0  0
    1.9486    1.5000    0.0000 C   0  0  0  0  0  0  0  0  0  0  0  0
    3.2476    0.7500    0.0000 C   0  0  0  0  0  0  0  0  0  0  0  0
    3.2476   -0.7500    0.0000 C   0  0  0  0  0  0  0  0  0  0  0  0
    1.9486   -1.5000    0.0000 C   0  0  0  0  0  0  0  0  0  0  0  0
   -1.9486    0.7500    0.0000 C   0  0  0  0  0  0  0  0  0  0  0  0
   -0.6495    1.5000    0.0000 O   0  0  0  0  0  0  0  0  0  0  0  0
   -3.2476    1.5000    0.0000 O   0  0  0  0  0  0  0  0  0  0  0  0
  1  2  1  0
  2  3  2  0
  3  4  1  0
  4  5  2  0
  5  6  1  0
  6  7  2  0
  7  8  1  0
  8  9  2  0
  2 10  1  0
 10 11  2  0
 10 12  1  0
  9  4  1  0
M  END
>  <rName>  (1967) 
Phe_a_bdehydro_E

>  <PQ_SYMBOL>  (1967) 
Phe_a_bdehydro_E

>  <FULL_NAME>  (1967) 
(E)-2-amino-3-phenylacrylic acid

>  <IUPAC_CONDENSED>  (1967) 
Phe(a,b-dehydro,E)

>  <IUPAC>  (1967) 
(2E)-2-amino-3-phenylprop-2-enoic acid

>  <TYPE>  (1967) 
Backbone

>  <CLASS>  (1967) 
alpha

>  <ANALOG>  (1967) 
Phe

>  <MOL_WT>  (1967) 
163.17599999999996

>  <LOGP>  (1967) 
1.0708000000000002

>  <TPSA>  (1967) 
63.32000000000001

>  <POPULARITY>  (1967) 
5.5

>  <PROTECTED>  (1967) 
TRUE

>  <SMILES>  (1967) 
N/C(=C/c1ccccc1)C(=O)O

>  <INCHIKEY>  (1967) 
YWIQQKOKNPPGDO-SOFGYWHQSA-N

$$$$
NEt-I
     RDKit          2D

 11 10  0  0  0  0  0  0  0  0999 V2000
    0.9715    1.0584    0.0000 N   0  0  0  0  0  0  0  0  0  0  0  0
    2.4575    0.8540    0.0000 C   0  0  0  0  0  0  0  0  0  0  0  0
    3.3775    2.0387    0.0000 C   0  0  0  0  0  0  0  0  0  0  0  0
    0.0515   -0.1263    0.0000 C   0  0  0  0  0  0  0  0  0  0  0  0
   -1.4346    0.0781    0.0000 C   0  0  0  0  0  0  0  0  0  0  0  0
   -2.3546   -1.1066    0.0000 C   0  0  0  0  0  0  0  0  0  0  0  0
   -2.0005    1.4673    0.0000 C   0  0  0  0  0  0  0  0  0  0  0  0
   -3.4865    1.6717    0.0000 C   0  0  0  0  0  0  0  0  0  0  0  0
    0.6174   -1.5154    0.0000 C   0  0  0  0  0  0  0  0  0  0  0  0
    2.1034   -1.7198    0.0000 O   0  0  0  0  0  0  0  0  0  0  0  0
   -0.3026   -2.7001    0.0000 O   0  0  0  0  0  0  0  0  0  0  0  0
  1  2  1  0
  2  3  1  0
  4  1  1  6
  4  5  1  0
  5  6  1  1
  5  7  1  0
  7  8  1  0
  4  9  1  0
  9 10  2  0
  9 11  1  0
M  END
>  <rName>  (1968) 
NEt-I

>  <PQ_SYMBOL>  (1968) 
NEt-I

>  <FULL_NAME>  (1968) 
ethyl-L-isoleucine

>  <IUPAC_CONDENSED>  (1968) 
Et-Ile

>  <IUPAC>  (1968) 
(2S,3S)-2-(ethylamino)-3-methylpentanoic acid

>  <TYPE>  (1968) 
Backbone

>  <CLASS>  (1968) 
alpha

>  <ANALOG>  (1968) 
Ile

>  <MOL_WT>  (1968) 
159.22899999999998

>  <LOGP>  (1968) 
1.0952

>  <TPSA>  (1968) 
49.33

>  <POPULARITY>  (1968) 
14.9

>  <PROTECTED>  (1968) 
TRUE

>  <SMILES>  (1968) 
N(CC)[C@@H]([C@@H](C)CC)C(=O)O

>  <INCHIKEY>  (1968) 
CPDIYSDSKGPIFR-BQBZGAKWSA-N

$$$$
bLys_R
     RDKit          2D

 10  9  0  0  0  0  0  0  0  0999 V2000
    0.3386   -1.4842    0.0000 N   0  0  0  0  0  0  0  0  0  0  0  0
    0.2594    0.0137    0.0000 C   0  0  0  0  0  0  0  0  0  0  0  0
   -1.0773    0.6941    0.0000 C   0  0  0  0  0  0  0  0  0  0  0  0
   -2.3350   -0.1233    0.0000 C   0  0  0  0  0  0  0  0  0  0  0  0
   -3.6718    0.5571    0.0000 C   0  0  0  0  0  0  0  0  0  0  0  0
   -4.9295   -0.2604    0.0000 N   0  0  0  0  0  0  0  0  0  0  0  0
    1.5171    0.8312    0.0000 C   0  0  0  0  0  0  0  0  0  0  0  0
    2.8539    0.1507    0.0000 C   0  0  0  0  0  0  0  0  0  0  0  0
    2.9330   -1.3472    0.0000 O   0  0  0  0  0  0  0  0  0  0  0  0
    4.1116    0.9682    0.0000 O   0  0  0  0  0  0  0  0  0  0  0  0
  2  1  1  6
  2  3  1  0
  3  4  1  0
  4  5  1  0
  5  6  1  0
  2  7  1  0
  7  8  1  0
  8  9  2  0
  8 10  1  0
M  END
>  <rName>  (1969) 
bLys_R

>  <PQ_SYMBOL>  (1969) 
bLys_R

>  <FULL_NAME>  (1969) 
(R)-3,6-diaminohexanoic acid

>  <IUPAC_CONDENSED>  (1969) 
bLys(R)

>  <IUPAC>  (1969) 
(3R)-3,6-diaminohexanoic acid

>  <TYPE>  (1969) 
Backbone

>  <CLASS>  (1969) 
beta

>  <ANALOG>  (1969) 
Lys

>  <MOL_WT>  (1969) 
146.19000000000003

>  <LOGP>  (1969) 
-0.4727000000000004

>  <TPSA>  (1969) 
89.34

>  <POPULARITY>  (1969) 
11.6

>  <PROTECTED>  (1969) 
TRUE

>  <SMILES>  (1969) 
N[C@H](CCCN)CC(=O)O

>  <INCHIKEY>  (1969) 
QKEWQOJCHPFEAF-RXMQYKEDSA-N

$$$$
Lys_5FAM
     RDKit          2D

 37 41  0  0  0  0  0  0  0  0999 V2000
   10.0862   -1.5717    0.0000 N   0  0  0  0  0  0  0  0  0  0  0  0
    9.7675   -0.1060    0.0000 C   0  0  0  0  0  0  0  0  0  0  0  0
    8.3388    0.3509    0.0000 C   0  0  0  0  0  0  0  0  0  0  0  0
    7.2288   -0.6580    0.0000 C   0  0  0  0  0  0  0  0  0  0  0  0
    5.8000   -0.2011    0.0000 C   0  0  0  0  0  0  0  0  0  0  0  0
    4.6900   -1.2100    0.0000 C   0  0  0  0  0  0  0  0  0  0  0  0
    3.2613   -0.7531    0.0000 N   0  0  0  0  0  0  0  0  0  0  0  0
    2.1513   -1.7620    0.0000 C   0  0  0  0  0  0  0  0  0  0  0  0
    2.4700   -3.2277    0.0000 O   0  0  0  0  0  0  0  0  0  0  0  0
    0.7225   -1.3051    0.0000 C   0  0  0  0  0  0  0  0  0  0  0  0
    0.4038    0.1606    0.0000 C   0  0  0  0  0  0  0  0  0  0  0  0
   -1.0249    0.6175    0.0000 C   0  0  0  0  0  0  0  0  0  0  0  0
   -2.1349   -0.3914    0.0000 C   0  0  0  0  0  0  0  0  0  0  0  0
   -1.8162   -1.8571    0.0000 C   0  0  0  0  0  0  0  0  0  0  0  0
   -0.3875   -2.3140    0.0000 C   0  0  0  0  0  0  0  0  0  0  0  0
   -3.1118   -2.6132    0.0000 C   0  0  0  0  0  0  0  0  0  0  0  0
   -3.2616   -4.1057    0.0000 O   0  0  0  0  0  0  0  0  0  0  0  0
   -4.2311   -1.6147    0.0000 O   0  0  0  0  0  0  0  0  0  0  0  0
   -3.6274   -0.2415    0.0000 C   0  0  0  0  0  0  0  0  0  0  0  0
   -2.8835    1.0610    0.0000 C   0  0  0  0  0  0  0  0  0  0  0  0
   -1.7363    1.6726    0.0000 C   0  0  0  0  0  0  0  0  0  0  0  0
   -1.3396    2.3672    0.0000 C   0  0  0  0  0  0  0  0  0  0  0  0
   -1.7428    3.0582    0.0000 C   0  0  0  0  0  0  0  0  0  0  0  0
   -0.6517    4.9685    0.0000 O   0  0  0  0  0  0  0  0  0  0  0  0
   -2.5428    3.0545    0.0000 C   0  0  0  0  0  0  0  0  0  0  0  0
   -3.6395    2.3565    0.0000 C   0  0  0  0  0  0  0  0  0  0  0  0
   -5.1395    2.3495    0.0000 O   0  0  0  0  0  0  0  0  0  0  0  0
   -5.8835    1.0470    0.0000 C   0  0  0  0  0  0  0  0  0  0  0  0
   -7.3834    1.0400    0.0000 C   0  0  0  0  0  0  0  0  0  0  0  0
   -8.1274   -0.2625    0.0000 C   0  0  0  0  0  0  0  0  0  0  0  0
   -9.6274   -0.2695    0.0000 O   0  0  0  0  0  0  0  0  0  0  0  0
   -7.3713   -1.5580    0.0000 C   0  0  0  0  0  0  0  0  0  0  0  0
   -5.8714   -1.5510    0.0000 C   0  0  0  0  0  0  0  0  0  0  0  0
   -5.1274   -0.2485    0.0000 C   0  0  0  0  0  0  0  0  0  0  0  0
   10.8776    0.9029    0.0000 C   0  0  0  0  0  0  0  0  0  0  0  0
   10.5589    2.3687    0.0000 O   0  0  0  0  0  0  0  0  0  0  0  0
   12.3063    0.4460    0.0000 O   0  0  0  0  0  0  0  0  0  0  0  0
  2  1  1  1
  2  3  1  0
  3  4  1  0
  4  5  1  0
  5  6  1  0
  6  7  1  0
  7  8  1  0
  8  9  2  0
  8 10  1  0
 10 11  1  0
 11 12  2  0
 12 13  1  0
 13 14  2  0
 14 15  1  0
 14 16  1  0
 16 17  2  0
 16 18  1  0
 18 19  1  0
 19 20  1  0
 20 21  1  0
 21 22  2  0
 22 23  1  0
 23 24  1  0
 23 25  2  0
 25 26  1  0
 26 27  1  0
 27 28  1  0
 28 29  1  0
 29 30  2  0
 30 31  1  0
 30 32  1  0
 32 33  2  0
 33 34  1  0
  2 35  1  0
 35 36  2  0
 35 37  1  0
 15 10  2  0
 34 19  1  0
 19 13  1  0
 26 20  2  0
 34 28  2  0
M  END
>  <rName>  (1970) 
Lys_5FAM

>  <PQ_SYMBOL>  (1970) 
Lys_5FAM

>  <FULL_NAME>  (1970) 
N6-(3',6'-dihydroxy-3-oxo-3H-spiro[isobenzofuran-1,9'-xanthene]-5-carbonyl)-L-lysine

>  <IUPAC_CONDENSED>  (1970) 
Lys(5-FAM)

>  <IUPAC>  (1970) 
N6-(3',6'-dihydroxy-3-oxo-3H-spiro[isobenzofuran-1,9'-xanthene]-5-carbonyl)-L-lysine

>  <TYPE>  (1970) 
Backbone

>  <CLASS>  (1970) 
alpha

>  <ANALOG>  (1970) 
Lys

>  <MOL_WT>  (1970) 
504.4950000000003

>  <LOGP>  (1970) 
2.9778000000000002

>  <TPSA>  (1970) 
168.41

>  <POPULARITY>  (1970) 
3.3

>  <PROTECTED>  (1970) 
TRUE

>  <SMILES>  (1970) 
N[C@@H](CCCCNC(=O)c1ccc2c(c1)C(=O)OC21c2ccc(O)cc2Oc2cc(O)ccc21)C(=O)O

>  <INCHIKEY>  (1970) 
SAPWMFFOBXCMBM-NRFANRHFSA-N

$$$$
Phe_4fur3yl
     RDKit          2D

 19 20  0  0  0  0  0  0  0  0999 V2000
   -3.3688    1.6810    0.0000 N   0  0  0  0  0  0  0  0  0  0  0  0
   -3.9061    0.2806    0.0000 C   0  0  0  0  0  0  0  0  0  0  0  0
   -2.9620   -0.8850    0.0000 C   0  0  0  0  0  0  0  0  0  0  0  0
   -1.4805   -0.6501    0.0000 C   0  0  0  0  0  0  0  0  0  0  0  0
   -0.9432    0.7504    0.0000 C   0  0  0  0  0  0  0  0  0  0  0  0
    0.5383    0.9853    0.0000 C   0  0  0  0  0  0  0  0  0  0  0  0
    1.4825   -0.1803    0.0000 C   0  0  0  0  0  0  0  0  0  0  0  0
    0.9452   -1.5807    0.0000 C   0  0  0  0  0  0  0  0  0  0  0  0
   -0.5363   -1.8156    0.0000 C   0  0  0  0  0  0  0  0  0  0  0  0
    2.9640    0.0546    0.0000 C   0  0  0  0  0  0  0  0  0  0  0  0
    3.6448    1.3912    0.0000 C   0  0  0  0  0  0  0  0  0  0  0  0
    2.9636    2.7276    0.0000 C   0  0  0  0  0  0  0  0  0  0  0  0
    5.1263    1.1568    0.0000 N   0  0  0  0  0  0  0  0  0  0  0  0
    5.3612   -0.3247    0.0000 O   0  0  0  0  0  0  0  0  0  0  0  0
    4.0248   -1.0059    0.0000 C   0  0  0  0  0  0  0  0  0  0  0  0
    3.7904   -2.4874    0.0000 C   0  0  0  0  0  0  0  0  0  0  0  0
   -5.3876    0.0457    0.0000 C   0  0  0  0  0  0  0  0  0  0  0  0
   -5.9250   -1.3548    0.0000 O   0  0  0  0  0  0  0  0  0  0  0  0
   -6.3318    1.2112    0.0000 O   0  0  0  0  0  0  0  0  0  0  0  0
  2  1  1  1
  2  3  1  0
  3  4  1  0
  4  5  1  0
  5  6  2  0
  6  7  1  0
  7  8  2  0
  8  9  1  0
  7 10  1  0
 10 11  1  0
 11 12  1  0
 11 13  2  0
 13 14  1  0
 14 15  1  0
 15 16  1  0
  2 17  1  0
 17 18  2  0
 17 19  1  0
  9  4  2  0
 15 10  2  0
M  END
>  <rName>  (1971) 
Phe_4fur3yl

>  <PQ_SYMBOL>  (1971) 
Phe_4fur3yl

>  <FULL_NAME>  (1971) 
(S)-2-amino-3-(4-(3,5-dimethylisoxazol-4-yl)phenyl)propanoic acid

>  <IUPAC_CONDENSED>  (1971) 
Phe(4-fur-3-yl)

>  <IUPAC>  (1971) 
(2S)-2-amino-3-(4-(3,5-dimethylisoxazol-4-yl)phenyl)propanoic acid

>  <TYPE>  (1971) 
Backbone

>  <CLASS>  (1971) 
alpha

>  <ANALOG>  (1971) 
Phe

>  <MOL_WT>  (1971) 
260.29299999999995

>  <LOGP>  (1971) 
1.91284

>  <TPSA>  (1971) 
89.35000000000001

>  <POPULARITY>  (1971) 
2.7

>  <PROTECTED>  (1971) 
TRUE

>  <SMILES>  (1971) 
N[C@@H](Cc1(ccc(cc1)c2(c(C)noc2C)))C(=O)O

>  <INCHIKEY>  (1971) 
XKIJDWRDDSOHCZ-LBPRGKRZSA-N

$$$$
bAla_3Ph_34diMe
     RDKit          2D

 14 14  0  0  0  0  0  0  0  0999 V2000
   -1.6907   -1.8557    0.0000 N   0  0  0  0  0  0  0  0  0  0  0  0
   -1.2771   -0.4139    0.0000 C   0  0  0  0  0  0  0  0  0  0  0  0
    0.1784   -0.0512    0.0000 C   0  0  0  0  0  0  0  0  0  0  0  0
    0.5920    1.3907    0.0000 C   0  0  0  0  0  0  0  0  0  0  0  0
    2.0475    1.7534    0.0000 C   0  0  0  0  0  0  0  0  0  0  0  0
    3.0894    0.6742    0.0000 C   0  0  0  0  0  0  0  0  0  0  0  0
    4.5448    1.0370    0.0000 C   0  0  0  0  0  0  0  0  0  0  0  0
    2.6757   -0.7676    0.0000 C   0  0  0  0  0  0  0  0  0  0  0  0
    3.7176   -1.8467    0.0000 C   0  0  0  0  0  0  0  0  0  0  0  0
    1.2202   -1.1303    0.0000 C   0  0  0  0  0  0  0  0  0  0  0  0
   -2.3190    0.6652    0.0000 C   0  0  0  0  0  0  0  0  0  0  0  0
   -3.7745    0.3025    0.0000 C   0  0  0  0  0  0  0  0  0  0  0  0
   -4.1881   -1.1393    0.0000 O   0  0  0  0  0  0  0  0  0  0  0  0
   -4.8163    1.3817    0.0000 O   0  0  0  0  0  0  0  0  0  0  0  0
  1  2  1  0
  2  3  1  0
  3  4  1  0
  4  5  2  0
  5  6  1  0
  6  7  1  0
  6  8  2  0
  8  9  1  0
  8 10  1  0
  2 11  1  0
 11 12  1  0
 12 13  2  0
 12 14  1  0
 10  3  2  0
M  END
>  <rName>  (1972) 
bAla_3Ph_34diMe

>  <PQ_SYMBOL>  (1972) 
bAla_3Ph_34diMe

>  <FULL_NAME>  (1972) 
3-amino-3-(3,4-dimethylphenyl)propanoic acid

>  <IUPAC_CONDENSED>  (1972) 
bAla(3-Ph(3,4-diMe))

>  <IUPAC>  (1972) 
3-amino-3-(3,4-dimethylphenyl)propanoic acid

>  <TYPE>  (1972) 
Backbone

>  <CLASS>  (1972) 
beta

>  <ANALOG>  (1972) 
X

>  <MOL_WT>  (1972) 
193.24599999999998

>  <LOGP>  (1972) 
1.77794

>  <TPSA>  (1972) 
63.32000000000001

>  <POPULARITY>  (1972) 
8.1

>  <PROTECTED>  (1972) 
TRUE

>  <SMILES>  (1972) 
NC(c1(ccc(C)c(C)c1))CC(=O)O

>  <INCHIKEY>  (1972) 
OMZFHHOURLYJMF-UHFFFAOYSA-N

$$$$
pyrrolo34-disoxazole3aR6aS-3-CO2H
     RDKit          2D

 11 12  0  0  0  0  0  0  0  0999 V2000
   -2.6838   -1.3162    0.0000 N   0  0  0  0  0  0  0  0  0  0  0  0
   -1.2132   -1.6117    0.0000 C   0  0  0  0  0  0  0  0  0  0  0  0
   -0.4778   -0.3044    0.0000 C   0  0  0  0  0  0  0  0  0  0  0  0
    0.8857    0.3210    0.0000 C   0  0  0  0  0  0  0  0  0  0  0  0
    0.7122    1.8109    0.0000 N   0  0  0  0  0  0  0  0  0  0  0  0
   -0.7584    2.1064    0.0000 O   0  0  0  0  0  0  0  0  0  0  0  0
   -1.4938    0.7991    0.0000 C   0  0  0  0  0  0  0  0  0  0  0  0
   -2.8573    0.1737    0.0000 C   0  0  0  0  0  0  0  0  0  0  0  0
    2.1930   -0.4145    0.0000 C   0  0  0  0  0  0  0  0  0  0  0  0
    3.4836    0.3500    0.0000 O   0  0  0  0  0  0  0  0  0  0  0  0
    2.2097   -1.9144    0.0000 O   0  0  0  0  0  0  0  0  0  0  0  0
  1  2  1  0
  3  2  1  1
  3  4  1  0
  4  5  2  0
  5  6  1  0
  6  7  1  0
  7  8  1  1
  4  9  1  0
  9 10  2  0
  9 11  1  0
  7  3  1  0
  8  1  1  0
M  END
>  <rName>  (1973) 
pyrrolo34-disoxazole3aR6aS-3-CO2H

>  <PQ_SYMBOL>  (1973) 
pyrrolo34-disoxazole3aR6aS-3-CO2H

>  <FULL_NAME>  (1973) 
(3aR,6aS)-3a,5,6,6a-tetrahydro-4H-pyrrolo[3,4-d]isoxazole-3-carboxylic acid

>  <IUPAC_CONDENSED>  (1973) 
pyrrolo[3,4-d]isoxazole(3aR,6aS)-3-CO2H

>  <IUPAC>  (1973) 
(1S,5R)-2-oxa-3,7-diazabicyclo[3.3.0]oct-3-ene-4-carboxylic acid

>  <TYPE>  (1973) 
Backbone

>  <CLASS>  (1973) 
gamma

>  <ANALOG>  (1973) 
Pro

>  <MOL_WT>  (1973) 
156.141

>  <LOGP>  (1973) 
-0.9548000000000001

>  <TPSA>  (1973) 
70.92

>  <POPULARITY>  (1973) 
5.7

>  <PROTECTED>  (1973) 
TRUE

>  <SMILES>  (1973) 
N2C[C@@H]1C(=NO[C@@H]1C2)C(=O)O

>  <INCHIKEY>  (1973) 
SJFKEUIEXKCMQN-IUYQGCFVSA-N

$$$$
bAla_2ROH_3Rnaphth2yl
     RDKit          2D

 17 18  0  0  0  0  0  0  0  0999 V2000
   -2.6223   -2.0386    0.0000 N   0  0  0  0  0  0  0  0  0  0  0  0
   -1.8601   -0.7466    0.0000 C   0  0  0  0  0  0  0  0  0  0  0  0
   -0.3601   -0.7608    0.0000 C   0  0  0  0  0  0  0  0  0  0  0  0
    0.3776   -2.0668    0.0000 C   0  0  0  0  0  0  0  0  0  0  0  0
    1.8775   -2.0810    0.0000 C   0  0  0  0  0  0  0  0  0  0  0  0
    2.6397   -0.7890    0.0000 C   0  0  0  0  0  0  0  0  0  0  0  0
    4.1397   -0.8032    0.0000 C   0  0  0  0  0  0  0  0  0  0  0  0
    4.9019    0.4887    0.0000 C   0  0  0  0  0  0  0  0  0  0  0  0
    4.1642    1.7948    0.0000 C   0  0  0  0  0  0  0  0  0  0  0  0
    2.6642    1.8089    0.0000 C   0  0  0  0  0  0  0  0  0  0  0  0
    1.9020    0.5170    0.0000 C   0  0  0  0  0  0  0  0  0  0  0  0
    0.4021    0.5311    0.0000 C   0  0  0  0  0  0  0  0  0  0  0  0
   -2.5978    0.5594    0.0000 C   0  0  0  0  0  0  0  0  0  0  0  0
   -1.8356    1.8513    0.0000 O   0  0  0  0  0  0  0  0  0  0  0  0
   -4.0977    0.5735    0.0000 C   0  0  0  0  0  0  0  0  0  0  0  0
   -4.8599   -0.7184    0.0000 O   0  0  0  0  0  0  0  0  0  0  0  0
   -4.8354    1.8796    0.0000 O   0  0  0  0  0  0  0  0  0  0  0  0
  2  1  1  1
  2  3  1  0
  3  4  1  0
  4  5  2  0
  5  6  1  0
  6  7  2  0
  7  8  1  0
  8  9  2  0
  9 10  1  0
 10 11  2  0
 11 12  1  0
  2 13  1  0
 13 14  1  6
 13 15  1  0
 15 16  2  0
 15 17  1  0
 11  6  1  0
 12  3  2  0
M  END
>  <rName>  (1974) 
bAla_2ROH_3Rnaphth2yl

>  <PQ_SYMBOL>  (1974) 
bAla_2ROH_3Rnaphth2yl

>  <FULL_NAME>  (1974) 
(2R,3R)-3-amino-2-hydroxy-3-(naphthalen-2-yl)propanoic acid

>  <IUPAC_CONDENSED>  (1974) 
bAla(2R-OH,3R-naphth-2-yl)

>  <IUPAC>  (1974) 
(2R,3R)-3-amino-2-hydroxy-3-(naphthalen-2-yl)propanoic acid

>  <TYPE>  (1974) 
Backbone

>  <CLASS>  (1974) 
beta

>  <ANALOG>  (1974) 
X

>  <MOL_WT>  (1974) 
231.25099999999998

>  <LOGP>  (1974) 
1.2851000000000001

>  <TPSA>  (1974) 
83.55

>  <POPULARITY>  (1974) 
2.9

>  <PROTECTED>  (1974) 
TRUE

>  <SMILES>  (1974) 
N[C@H](c2(ccc1(ccccc1c2)))[C@@H](O)C(=O)O

>  <INCHIKEY>  (1974) 
XWVSXSUSCGCSFK-VXGBXAGGSA-N

$$$$
bAla_2ROH_3RPh_3OMe
     RDKit          2D

 15 15  0  0  0  0  0  0  0  0999 V2000
   -1.0591   -1.9971    0.0000 N   0  0  0  0  0  0  0  0  0  0  0  0
   -0.9802   -0.4992    0.0000 C   0  0  0  0  0  0  0  0  0  0  0  0
    0.3564    0.1815    0.0000 C   0  0  0  0  0  0  0  0  0  0  0  0
    0.4353    1.6794    0.0000 C   0  0  0  0  0  0  0  0  0  0  0  0
    1.7720    2.3601    0.0000 C   0  0  0  0  0  0  0  0  0  0  0  0
    3.0298    1.5429    0.0000 C   0  0  0  0  0  0  0  0  0  0  0  0
    2.9509    0.0449    0.0000 C   0  0  0  0  0  0  0  0  0  0  0  0
    4.2087   -0.7723    0.0000 O   0  0  0  0  0  0  0  0  0  0  0  0
    4.1299   -2.2702    0.0000 C   0  0  0  0  0  0  0  0  0  0  0  0
    1.6143   -0.6357    0.0000 C   0  0  0  0  0  0  0  0  0  0  0  0
   -2.2380    0.3181    0.0000 C   0  0  0  0  0  0  0  0  0  0  0  0
   -2.1592    1.8160    0.0000 O   0  0  0  0  0  0  0  0  0  0  0  0
   -3.5747   -0.3626    0.0000 C   0  0  0  0  0  0  0  0  0  0  0  0
   -3.6536   -1.8605    0.0000 O   0  0  0  0  0  0  0  0  0  0  0  0
   -4.8325    0.4547    0.0000 O   0  0  0  0  0  0  0  0  0  0  0  0
  2  1  1  1
  2  3  1  0
  3  4  2  0
  4  5  1  0
  5  6  2  0
  6  7  1  0
  7  8  1  0
  8  9  1  0
  7 10  2  0
  2 11  1  0
 11 12  1  6
 11 13  1  0
 13 14  2  0
 13 15  1  0
 10  3  1  0
M  END
>  <rName>  (1975) 
bAla_2ROH_3RPh_3OMe

>  <PQ_SYMBOL>  (1975) 
bAla_2ROH_3RPh_3OMe

>  <FULL_NAME>  (1975) 
(2R,3R)-3-amino-2-hydroxy-3-(3-methoxyphenyl)propanoic acid

>  <IUPAC_CONDENSED>  (1975) 
bAla(2R-OH,3R-Ph(3-OMe))

>  <IUPAC>  (1975) 
(2R,3R)-3-amino-2-hydroxy-3-(3-methoxyphenyl)propanoic acid

>  <TYPE>  (1975) 
Backbone

>  <CLASS>  (1975) 
beta

>  <ANALOG>  (1975) 
X

>  <MOL_WT>  (1975) 
211.21699999999998

>  <LOGP>  (1975) 
0.14050000000000007

>  <TPSA>  (1975) 
92.78000000000002

>  <POPULARITY>  (1975) 
4.9

>  <PROTECTED>  (1975) 
TRUE

>  <SMILES>  (1975) 
N[C@H](c1(cccc(OC)c1))[C@@H](O)C(=O)O

>  <INCHIKEY>  (1975) 
ICTHUARFCCZYSQ-RKDXNWHRSA-N

$$$$
bAla_2SOH_3SPh
     RDKit          2D

 13 13  0  0  0  0  0  0  0  0999 V2000
   -0.9220   -2.0742    0.0000 N   0  0  0  0  0  0  0  0  0  0  0  0
   -0.4991   -0.6350    0.0000 C   0  0  0  0  0  0  0  0  0  0  0  0
    0.9587   -0.2818    0.0000 C   0  0  0  0  0  0  0  0  0  0  0  0
    1.3817    1.1574    0.0000 C   0  0  0  0  0  0  0  0  0  0  0  0
    2.8395    1.5107    0.0000 C   0  0  0  0  0  0  0  0  0  0  0  0
    3.8743    0.4248    0.0000 C   0  0  0  0  0  0  0  0  0  0  0  0
    3.4514   -1.0143    0.0000 C   0  0  0  0  0  0  0  0  0  0  0  0
    1.9936   -1.3676    0.0000 C   0  0  0  0  0  0  0  0  0  0  0  0
   -1.5339    0.4508    0.0000 C   0  0  0  0  0  0  0  0  0  0  0  0
   -1.1110    1.8899    0.0000 O   0  0  0  0  0  0  0  0  0  0  0  0
   -2.9917    0.0975    0.0000 C   0  0  0  0  0  0  0  0  0  0  0  0
   -3.4147   -1.3416    0.0000 O   0  0  0  0  0  0  0  0  0  0  0  0
   -4.0266    1.1834    0.0000 O   0  0  0  0  0  0  0  0  0  0  0  0
  2  1  1  6
  2  3  1  0
  3  4  2  0
  4  5  1  0
  5  6  2  0
  6  7  1  0
  7  8  2  0
  2  9  1  0
  9 10  1  1
  9 11  1  0
 11 12  2  0
 11 13  1  0
  8  3  1  0
M  END
>  <rName>  (1976) 
bAla_2SOH_3SPh

>  <PQ_SYMBOL>  (1976) 
bAla_2SOH_3SPh

>  <FULL_NAME>  (1976) 
(2S,3S)-3-amino-2-hydroxy-3-phenylpropanoic acid

>  <IUPAC_CONDENSED>  (1976) 
bAla(2S-OH,3S-Ph)

>  <IUPAC>  (1976) 
(2S,3S)-3-amino-2-hydroxy-3-phenylpropanoic acid

>  <TYPE>  (1976) 
Backbone

>  <CLASS>  (1976) 
beta

>  <ANALOG>  (1976) 
X

>  <MOL_WT>  (1976) 
181.19099999999997

>  <LOGP>  (1976) 
0.13190000000000013

>  <TPSA>  (1976) 
83.55

>  <POPULARITY>  (1976) 
8

>  <PROTECTED>  (1976) 
TRUE

>  <SMILES>  (1976) 
N[C@@H](c1(ccccc1))[C@H](O)C(=O)O

>  <INCHIKEY>  (1976) 
RZARFIRJROUVLM-YUMQZZPRSA-N

$$$$
bAla_2SOH_3SPh_3OMe
     RDKit          2D

 15 15  0  0  0  0  0  0  0  0999 V2000
   -1.0591   -1.9971    0.0000 N   0  0  0  0  0  0  0  0  0  0  0  0
   -0.9802   -0.4992    0.0000 C   0  0  0  0  0  0  0  0  0  0  0  0
    0.3564    0.1815    0.0000 C   0  0  0  0  0  0  0  0  0  0  0  0
    0.4353    1.6794    0.0000 C   0  0  0  0  0  0  0  0  0  0  0  0
    1.7720    2.3601    0.0000 C   0  0  0  0  0  0  0  0  0  0  0  0
    3.0298    1.5429    0.0000 C   0  0  0  0  0  0  0  0  0  0  0  0
    2.9509    0.0449    0.0000 C   0  0  0  0  0  0  0  0  0  0  0  0
    4.2087   -0.7723    0.0000 O   0  0  0  0  0  0  0  0  0  0  0  0
    4.1299   -2.2702    0.0000 C   0  0  0  0  0  0  0  0  0  0  0  0
    1.6143   -0.6357    0.0000 C   0  0  0  0  0  0  0  0  0  0  0  0
   -2.2380    0.3181    0.0000 C   0  0  0  0  0  0  0  0  0  0  0  0
   -2.1592    1.8160    0.0000 O   0  0  0  0  0  0  0  0  0  0  0  0
   -3.5747   -0.3626    0.0000 C   0  0  0  0  0  0  0  0  0  0  0  0
   -3.6536   -1.8605    0.0000 O   0  0  0  0  0  0  0  0  0  0  0  0
   -4.8325    0.4547    0.0000 O   0  0  0  0  0  0  0  0  0  0  0  0
  2  1  1  6
  2  3  1  0
  3  4  2  0
  4  5  1  0
  5  6  2  0
  6  7  1  0
  7  8  1  0
  8  9  1  0
  7 10  2  0
  2 11  1  0
 11 12  1  1
 11 13  1  0
 13 14  2  0
 13 15  1  0
 10  3  1  0
M  END
>  <rName>  (1977) 
bAla_2SOH_3SPh_3OMe

>  <PQ_SYMBOL>  (1977) 
bAla_2SOH_3SPh_3OMe

>  <FULL_NAME>  (1977) 
(2S,3S)-3-amino-2-hydroxy-3-(3-methoxyphenyl)propanoic acid

>  <IUPAC_CONDENSED>  (1977) 
bAla(2S-OH,3S-Ph(3-OMe))

>  <IUPAC>  (1977) 
(2S,3S)-3-amino-2-hydroxy-3-(3-methoxyphenyl)propanoic acid

>  <TYPE>  (1977) 
Backbone

>  <CLASS>  (1977) 
beta

>  <ANALOG>  (1977) 
X

>  <MOL_WT>  (1977) 
211.21699999999998

>  <LOGP>  (1977) 
0.14050000000000007

>  <TPSA>  (1977) 
92.78000000000002

>  <POPULARITY>  (1977) 
4.3

>  <PROTECTED>  (1977) 
TRUE

>  <SMILES>  (1977) 
N[C@@H](c1(cccc(OC)c1))[C@H](O)C(=O)O

>  <INCHIKEY>  (1977) 
ICTHUARFCCZYSQ-IUCAKERBSA-N

$$$$
bAla_2SOH_3SPh_2OMe
     RDKit          2D

 15 15  0  0  0  0  0  0  0  0999 V2000
   -0.8095   -1.8533    0.0000 N   0  0  0  0  0  0  0  0  0  0  0  0
   -0.7163   -0.3562    0.0000 C   0  0  0  0  0  0  0  0  0  0  0  0
    0.6268    0.3117    0.0000 C   0  0  0  0  0  0  0  0  0  0  0  0
    0.7200    1.8088    0.0000 C   0  0  0  0  0  0  0  0  0  0  0  0
    2.0631    2.4766    0.0000 C   0  0  0  0  0  0  0  0  0  0  0  0
    3.3131    1.6473    0.0000 C   0  0  0  0  0  0  0  0  0  0  0  0
    3.2198    0.1502    0.0000 C   0  0  0  0  0  0  0  0  0  0  0  0
    1.8767   -0.5176    0.0000 C   0  0  0  0  0  0  0  0  0  0  0  0
    1.7835   -2.0147    0.0000 O   0  0  0  0  0  0  0  0  0  0  0  0
    3.0334   -2.8440    0.0000 C   0  0  0  0  0  0  0  0  0  0  0  0
   -1.9663    0.4731    0.0000 C   0  0  0  0  0  0  0  0  0  0  0  0
   -1.8731    1.9702    0.0000 O   0  0  0  0  0  0  0  0  0  0  0  0
   -3.3094   -0.1947    0.0000 C   0  0  0  0  0  0  0  0  0  0  0  0
   -3.4026   -1.6919    0.0000 O   0  0  0  0  0  0  0  0  0  0  0  0
   -4.5593    0.6345    0.0000 O   0  0  0  0  0  0  0  0  0  0  0  0
  2  1  1  6
  2  3  1  0
  3  4  2  0
  4  5  1  0
  5  6  2  0
  6  7  1  0
  7  8  2  0
  8  9  1  0
  9 10  1  0
  2 11  1  0
 11 12  1  1
 11 13  1  0
 13 14  2  0
 13 15  1  0
  8  3  1  0
M  END
>  <rName>  (1978) 
bAla_2SOH_3SPh_2OMe

>  <PQ_SYMBOL>  (1978) 
bAla_2SOH_3SPh_2OMe

>  <FULL_NAME>  (1978) 
(2S,3S)-3-amino-2-hydroxy-3-(2-methoxyphenyl)propanoic acid

>  <IUPAC_CONDENSED>  (1978) 
bAla(2S-OH,3S-Ph(2-OMe))

>  <IUPAC>  (1978) 
(2S,3S)-3-amino-2-hydroxy-3-(2-methoxyphenyl)propanoic acid

>  <TYPE>  (1978) 
Backbone

>  <CLASS>  (1978) 
beta

>  <ANALOG>  (1978) 
X

>  <MOL_WT>  (1978) 
211.21699999999998

>  <LOGP>  (1978) 
0.14050000000000007

>  <TPSA>  (1978) 
92.78000000000002

>  <POPULARITY>  (1978) 
3.8

>  <PROTECTED>  (1978) 
TRUE

>  <SMILES>  (1978) 
N[C@@H](c1(ccccc1OC))[C@H](O)C(=O)O

>  <INCHIKEY>  (1978) 
GVANXUOIKFVRKN-IUCAKERBSA-N

$$$$
bAla_2SOH_3SPh_4OMe
     RDKit          2D

 15 15  0  0  0  0  0  0  0  0999 V2000
   -1.7327   -2.0803    0.0000 N   0  0  0  0  0  0  0  0  0  0  0  0
   -1.2887   -0.6475    0.0000 C   0  0  0  0  0  0  0  0  0  0  0  0
    0.1742   -0.3157    0.0000 C   0  0  0  0  0  0  0  0  0  0  0  0
    0.6182    1.1171    0.0000 C   0  0  0  0  0  0  0  0  0  0  0  0
    2.0810    1.4489    0.0000 C   0  0  0  0  0  0  0  0  0  0  0  0
    3.0998    0.3479    0.0000 C   0  0  0  0  0  0  0  0  0  0  0  0
    4.5627    0.6798    0.0000 O   0  0  0  0  0  0  0  0  0  0  0  0
    5.5815   -0.4212    0.0000 C   0  0  0  0  0  0  0  0  0  0  0  0
    2.6558   -1.0848    0.0000 C   0  0  0  0  0  0  0  0  0  0  0  0
    1.1929   -1.4166    0.0000 C   0  0  0  0  0  0  0  0  0  0  0  0
   -2.3075    0.4534    0.0000 C   0  0  0  0  0  0  0  0  0  0  0  0
   -1.8634    1.8862    0.0000 O   0  0  0  0  0  0  0  0  0  0  0  0
   -3.7703    0.1216    0.0000 C   0  0  0  0  0  0  0  0  0  0  0  0
   -4.2144   -1.3112    0.0000 O   0  0  0  0  0  0  0  0  0  0  0  0
   -4.7891    1.2225    0.0000 O   0  0  0  0  0  0  0  0  0  0  0  0
  2  1  1  6
  2  3  1  0
  3  4  1  0
  4  5  2  0
  5  6  1  0
  6  7  1  0
  7  8  1  0
  6  9  2  0
  9 10  1  0
  2 11  1  0
 11 12  1  1
 11 13  1  0
 13 14  2  0
 13 15  1  0
 10  3  2  0
M  END
>  <rName>  (1979) 
bAla_2SOH_3SPh_4OMe

>  <PQ_SYMBOL>  (1979) 
bAla_2SOH_3SPh_4OMe

>  <FULL_NAME>  (1979) 
(2S,3S)-3-amino-2-hydroxy-3-(4-methoxyphenyl)propanoic acid

>  <IUPAC_CONDENSED>  (1979) 
bAla(2S-OH,3S-Ph(4-OMe))

>  <IUPAC>  (1979) 
(2S,3S)-3-amino-2-hydroxy-3-(4-methoxyphenyl)propanoic acid

>  <TYPE>  (1979) 
Backbone

>  <CLASS>  (1979) 
beta

>  <ANALOG>  (1979) 
X

>  <MOL_WT>  (1979) 
211.21699999999998

>  <LOGP>  (1979) 
0.14050000000000007

>  <TPSA>  (1979) 
92.78000000000002

>  <POPULARITY>  (1979) 
6.4

>  <PROTECTED>  (1979) 
TRUE

>  <SMILES>  (1979) 
N[C@@H](c1(ccc(OC)cc1))[C@H](O)C(=O)O

>  <INCHIKEY>  (1979) 
CMDQTUROESJWHM-IUCAKERBSA-N

$$$$
bAla_2SOH_3SPh_2Me
     RDKit          2D

 14 14  0  0  0  0  0  0  0  0999 V2000
   -0.9045   -1.9397    0.0000 N   0  0  0  0  0  0  0  0  0  0  0  0
   -0.5803   -0.4751    0.0000 C   0  0  0  0  0  0  0  0  0  0  0  0
    0.8501   -0.0235    0.0000 C   0  0  0  0  0  0  0  0  0  0  0  0
    1.1742    1.4410    0.0000 C   0  0  0  0  0  0  0  0  0  0  0  0
    2.6046    1.8926    0.0000 C   0  0  0  0  0  0  0  0  0  0  0  0
    3.7109    0.8796    0.0000 C   0  0  0  0  0  0  0  0  0  0  0  0
    3.3868   -0.5850    0.0000 C   0  0  0  0  0  0  0  0  0  0  0  0
    1.9564   -1.0365    0.0000 C   0  0  0  0  0  0  0  0  0  0  0  0
    1.6322   -2.5011    0.0000 C   0  0  0  0  0  0  0  0  0  0  0  0
   -1.6866    0.5379    0.0000 C   0  0  0  0  0  0  0  0  0  0  0  0
   -1.3625    2.0024    0.0000 O   0  0  0  0  0  0  0  0  0  0  0  0
   -3.1170    0.0863    0.0000 C   0  0  0  0  0  0  0  0  0  0  0  0
   -3.4411   -1.3782    0.0000 O   0  0  0  0  0  0  0  0  0  0  0  0
   -4.2233    1.0993    0.0000 O   0  0  0  0  0  0  0  0  0  0  0  0
  2  1  1  6
  2  3  1  0
  3  4  2  0
  4  5  1  0
  5  6  2  0
  6  7  1  0
  7  8  2  0
  8  9  1  0
  2 10  1  0
 10 11  1  1
 10 12  1  0
 12 13  2  0
 12 14  1  0
  8  3  1  0
M  END
>  <rName>  (1980) 
bAla_2SOH_3SPh_2Me

>  <PQ_SYMBOL>  (1980) 
bAla_2SOH_3SPh_2Me

>  <FULL_NAME>  (1980) 
(2S,3S)-3-amino-2-hydroxy-3-(o-tolyl)propanoic acid

>  <IUPAC_CONDENSED>  (1980) 
bAla(2S-OH,3S-Ph(2-Me))

>  <IUPAC>  (1980) 
(2S,3S)-3-amino-2-hydroxy-3-(2-methylphenyl)propanoic acid

>  <TYPE>  (1980) 
Backbone

>  <CLASS>  (1980) 
beta

>  <ANALOG>  (1980) 
X

>  <MOL_WT>  (1980) 
195.218

>  <LOGP>  (1980) 
0.44032000000000004

>  <TPSA>  (1980) 
83.55

>  <POPULARITY>  (1980) 
4.2

>  <PROTECTED>  (1980) 
TRUE

>  <SMILES>  (1980) 
N[C@@H](c1(ccccc1C))[C@H](O)C(=O)O

>  <INCHIKEY>  (1980) 
VFZRMUSJGAGTPL-IUCAKERBSA-N

$$$$
bAla_2SOH_3SPh_23diOMe
     RDKit          2D

 17 17  0  0  0  0  0  0  0  0999 V2000
   -1.0916   -1.7513    0.0000 N   0  0  0  0  0  0  0  0  0  0  0  0
   -1.0730   -0.2514    0.0000 C   0  0  0  0  0  0  0  0  0  0  0  0
    0.2353    0.4824    0.0000 C   0  0  0  0  0  0  0  0  0  0  0  0
    0.2539    1.9823    0.0000 C   0  0  0  0  0  0  0  0  0  0  0  0
    1.5622    2.7161    0.0000 C   0  0  0  0  0  0  0  0  0  0  0  0
    2.8518    1.9500    0.0000 C   0  0  0  0  0  0  0  0  0  0  0  0
    2.8331    0.4501    0.0000 C   0  0  0  0  0  0  0  0  0  0  0  0
    4.1227   -0.3160    0.0000 O   0  0  0  0  0  0  0  0  0  0  0  0
    4.1041   -1.8159    0.0000 C   0  0  0  0  0  0  0  0  0  0  0  0
    1.5249   -0.2837    0.0000 C   0  0  0  0  0  0  0  0  0  0  0  0
    1.5062   -1.7836    0.0000 O   0  0  0  0  0  0  0  0  0  0  0  0
    0.1980   -2.5174    0.0000 C   0  0  0  0  0  0  0  0  0  0  0  0
   -2.3626    0.5147    0.0000 C   0  0  0  0  0  0  0  0  0  0  0  0
   -2.3440    2.0146    0.0000 O   0  0  0  0  0  0  0  0  0  0  0  0
   -3.6709   -0.2191    0.0000 C   0  0  0  0  0  0  0  0  0  0  0  0
   -3.6895   -1.7190    0.0000 O   0  0  0  0  0  0  0  0  0  0  0  0
   -4.9605    0.5470    0.0000 O   0  0  0  0  0  0  0  0  0  0  0  0
  2  1  1  6
  2  3  1  0
  3  4  2  0
  4  5  1  0
  5  6  2  0
  6  7  1  0
  7  8  1  0
  8  9  1  0
  7 10  2  0
 10 11  1  0
 11 12  1  0
  2 13  1  0
 13 14  1  1
 13 15  1  0
 15 16  2  0
 15 17  1  0
 10  3  1  0
M  END
>  <rName>  (1981) 
bAla_2SOH_3SPh_23diOMe

>  <PQ_SYMBOL>  (1981) 
bAla_2SOH_3SPh_23diOMe

>  <FULL_NAME>  (1981) 
(2S,3S)-3-amino-3-(2,3-dimethoxyphenyl)-2-hydroxypropanoic acid

>  <IUPAC_CONDENSED>  (1981) 
bAla(2S-OH,3S-Ph(2,3-diOMe))

>  <IUPAC>  (1981) 
(2S,3S)-3-amino-3-(2,3-dimethoxyphenyl)-2-hydroxypropanoic acid

>  <TYPE>  (1981) 
Backbone

>  <CLASS>  (1981) 
beta

>  <ANALOG>  (1981) 
X

>  <MOL_WT>  (1981) 
241.24299999999997

>  <LOGP>  (1981) 
0.1491

>  <TPSA>  (1981) 
102.01

>  <POPULARITY>  (1981) 
2.8

>  <PROTECTED>  (1981) 
TRUE

>  <SMILES>  (1981) 
N[C@@H](c1(cccc(OC)c1OC))[C@H](O)C(=O)O

>  <INCHIKEY>  (1981) 
WIZUAKGGDWVKLC-IUCAKERBSA-N

$$$$
bAla_2SOH_3Snaphth2yl
     RDKit          2D

 17 18  0  0  0  0  0  0  0  0999 V2000
   -2.6223   -2.0386    0.0000 N   0  0  0  0  0  0  0  0  0  0  0  0
   -1.8601   -0.7466    0.0000 C   0  0  0  0  0  0  0  0  0  0  0  0
   -0.3601   -0.7608    0.0000 C   0  0  0  0  0  0  0  0  0  0  0  0
    0.3776   -2.0668    0.0000 C   0  0  0  0  0  0  0  0  0  0  0  0
    1.8775   -2.0810    0.0000 C   0  0  0  0  0  0  0  0  0  0  0  0
    2.6397   -0.7890    0.0000 C   0  0  0  0  0  0  0  0  0  0  0  0
    4.1397   -0.8032    0.0000 C   0  0  0  0  0  0  0  0  0  0  0  0
    4.9019    0.4887    0.0000 C   0  0  0  0  0  0  0  0  0  0  0  0
    4.1642    1.7948    0.0000 C   0  0  0  0  0  0  0  0  0  0  0  0
    2.6642    1.8089    0.0000 C   0  0  0  0  0  0  0  0  0  0  0  0
    1.9020    0.5170    0.0000 C   0  0  0  0  0  0  0  0  0  0  0  0
    0.4021    0.5311    0.0000 C   0  0  0  0  0  0  0  0  0  0  0  0
   -2.5978    0.5594    0.0000 C   0  0  0  0  0  0  0  0  0  0  0  0
   -1.8356    1.8513    0.0000 O   0  0  0  0  0  0  0  0  0  0  0  0
   -4.0977    0.5735    0.0000 C   0  0  0  0  0  0  0  0  0  0  0  0
   -4.8599   -0.7184    0.0000 O   0  0  0  0  0  0  0  0  0  0  0  0
   -4.8354    1.8796    0.0000 O   0  0  0  0  0  0  0  0  0  0  0  0
  2  1  1  6
  2  3  1  0
  3  4  1  0
  4  5  2  0
  5  6  1  0
  6  7  2  0
  7  8  1  0
  8  9  2  0
  9 10  1  0
 10 11  2  0
 11 12  1  0
  2 13  1  0
 13 14  1  1
 13 15  1  0
 15 16  2  0
 15 17  1  0
 11  6  1  0
 12  3  2  0
M  END
>  <rName>  (1982) 
bAla_2SOH_3Snaphth2yl

>  <PQ_SYMBOL>  (1982) 
bAla_2SOH_3Snaphth2yl

>  <FULL_NAME>  (1982) 
(2S,3S)-3-amino-2-hydroxy-3-(naphthalen-2-yl)propanoic acid

>  <IUPAC_CONDENSED>  (1982) 
bAla(2S-OH,3S-naphth-2-yl)

>  <IUPAC>  (1982) 
(2S,3S)-3-amino-2-hydroxy-3-(naphthalen-2-yl)propanoic acid

>  <TYPE>  (1982) 
Backbone

>  <CLASS>  (1982) 
beta

>  <ANALOG>  (1982) 
X

>  <MOL_WT>  (1982) 
231.25099999999998

>  <LOGP>  (1982) 
1.2851000000000001

>  <TPSA>  (1982) 
83.55

>  <POPULARITY>  (1982) 
2.9

>  <PROTECTED>  (1982) 
TRUE

>  <SMILES>  (1982) 
N[C@@H](c2(ccc1(ccccc1c2)))[C@H](O)C(=O)O

>  <INCHIKEY>  (1982) 
XWVSXSUSCGCSFK-RYUDHWBXSA-N

$$$$
D-aBuGaba
     RDKit          2D

 11 10  0  0  0  0  0  0  0  0999 V2000
   -1.0628    2.2500    0.0000 N   0  0  0  0  0  0  0  0  0  0  0  0
   -1.0628    0.7500    0.0000 C   0  0  0  0  0  0  0  0  0  0  0  0
   -2.3619    0.0000    0.0000 C   0  0  0  0  0  0  0  0  0  0  0  0
   -3.6609    0.7500    0.0000 C   0  0  0  0  0  0  0  0  0  0  0  0
   -2.3619   -1.5000    0.0000 C   0  0  0  0  0  0  0  0  0  0  0  0
   -1.0628   -2.2500    0.0000 C   0  0  0  0  0  0  0  0  0  0  0  0
    0.2362    0.0000    0.0000 C   0  0  0  0  0  0  0  0  0  0  0  0
    1.5352    0.7500    0.0000 C   0  0  0  0  0  0  0  0  0  0  0  0
    2.8343    0.0000    0.0000 C   0  0  0  0  0  0  0  0  0  0  0  0
    2.8343   -1.5000    0.0000 O   0  0  0  0  0  0  0  0  0  0  0  0
    4.1333    0.7500    0.0000 O   0  0  0  0  0  0  0  0  0  0  0  0
  2  1  1  6
  2  3  1  0
  3  4  1  6
  3  5  1  0
  5  6  1  0
  2  7  1  0
  7  8  1  0
  8  9  1  0
  9 10  2  0
  9 11  1  0
M  END
>  <rName>  (1983) 
D-aBuGaba

>  <PQ_SYMBOL>  (1983) 
D-aBuGaba

>  <FULL_NAME>  (1983) 
(4R,5S)-4-amino-5-methylheptanoic acid

>  <IUPAC_CONDENSED>  (1983) 
D-aBuGaba

>  <IUPAC>  (1983) 
(4R,5S)-4-amino-5-methylheptanoic acid

>  <TYPE>  (1983) 
Backbone

>  <CLASS>  (1983) 
gamma

>  <ANALOG>  (1983) 
Ile

>  <MOL_WT>  (1983) 
159.229

>  <LOGP>  (1983) 
1.2245999999999997

>  <TPSA>  (1983) 
63.32000000000001

>  <POPULARITY>  (1983) 
9.3

>  <PROTECTED>  (1983) 
TRUE

>  <SMILES>  (1983) 
N[C@@H]([C@@H](C)CC)CCC(=O)O

>  <INCHIKEY>  (1983) 
DVEQYBXCFNPUGR-NKWVEPMBSA-N

$$$$
Npyrrolidin2ylmethyl-G
     RDKit          2D

 11 11  0  0  0  0  0  0  0  0999 V2000
   -0.8743   -0.1360    0.0000 N   0  0  0  0  0  0  0  0  0  0  0  0
    0.3442   -1.0108    0.0000 C   0  0  0  0  0  0  0  0  0  0  0  0
    1.7110   -0.3930    0.0000 C   0  0  0  0  0  0  0  0  0  0  0  0
    3.0143   -1.1357    0.0000 C   0  0  0  0  0  0  0  0  0  0  0  0
    4.1233   -0.1257    0.0000 C   0  0  0  0  0  0  0  0  0  0  0  0
    3.5055    1.2411    0.0000 C   0  0  0  0  0  0  0  0  0  0  0  0
    2.0146    1.0759    0.0000 N   0  0  0  0  0  0  0  0  0  0  0  0
   -2.2412   -0.7538    0.0000 C   0  0  0  0  0  0  0  0  0  0  0  0
   -3.4596    0.1211    0.0000 C   0  0  0  0  0  0  0  0  0  0  0  0
   -3.3112    1.6137    0.0000 O   0  0  0  0  0  0  0  0  0  0  0  0
   -4.8265   -0.4968    0.0000 O   0  0  0  0  0  0  0  0  0  0  0  0
  1  2  1  0
  2  3  1  0
  3  4  1  0
  4  5  1  0
  5  6  1  0
  6  7  1  0
  1  8  1  0
  8  9  1  0
  9 10  2  0
  9 11  1  0
  7  3  1  0
M  END
>  <rName>  (1984) 
Npyrrolidin2ylmethyl-G

>  <PQ_SYMBOL>  (1984) 
Npyrrolidin2ylmethyl-G

>  <FULL_NAME>  (1984) 
(pyrrolidin-2-ylmethyl)glycine

>  <IUPAC_CONDENSED>  (1984) 
pyrrolidin-2-ylmethyl-Gly

>  <IUPAC>  (1984) 
2-(((pyrrolidin-2-yl)methyl)amino)acetic acid

>  <TYPE>  (1984) 
Backbone

>  <CLASS>  (1984) 
alpha

>  <ANALOG>  (1984) 
Gly

>  <MOL_WT>  (1984) 
158.20100000000002

>  <LOGP>  (1984) 
-0.5873999999999997

>  <TPSA>  (1984) 
61.36

>  <POPULARITY>  (1984) 
15.3

>  <PROTECTED>  (1984) 
TRUE

>  <SMILES>  (1984) 
N(CC1(CCCN1))CC(=O)O

>  <INCHIKEY>  (1984) 
CKPDOOMUKAZOKR-UHFFFAOYSA-N

$$$$
pyrrolidine-3-CO2H
     RDKit          2D

 15 16  0  0  0  0  0  0  0  0999 V2000
   -2.4156    2.2251    0.0000 N   0  0  0  0  0  0  0  0  0  0  0  0
   -2.8775    0.7979    0.0000 C   0  0  0  0  0  0  0  0  0  0  0  0
   -1.6630   -0.0823    0.0000 C   0  0  0  0  0  0  0  0  0  0  0  0
   -0.4505    0.8007    0.0000 C   0  0  0  0  0  0  0  0  0  0  0  0
   -0.1369   -0.6661    0.0000 C   0  0  0  0  0  0  0  0  0  0  0  0
    1.2902   -1.1280    0.0000 C   0  0  0  0  0  0  0  0  0  0  0  0
    2.4038   -0.1230    0.0000 S   0  0  0  0  0  0  0  0  0  0  0  0
    3.7939    0.4405    0.0000 O   0  0  0  0  0  0  0  0  0  0  0  0
    3.2001   -1.3942    0.0000 O   0  0  0  0  0  0  0  0  0  0  0  0
    2.0902    1.3438    0.0000 C   0  0  0  0  0  0  0  0  0  0  0  0
    0.6631    1.8057    0.0000 C   0  0  0  0  0  0  0  0  0  0  0  0
   -0.9156    2.2268    0.0000 C   0  0  0  0  0  0  0  0  0  0  0  0
   -1.6613   -1.5823    0.0000 C   0  0  0  0  0  0  0  0  0  0  0  0
   -0.3614   -2.3308    0.0000 O   0  0  0  0  0  0  0  0  0  0  0  0
   -2.9594   -2.3338    0.0000 O   0  0  0  0  0  0  0  0  0  0  0  0
  1  2  1  0
  2  3  1  0
  3  4  1  0
  4  5  1  0
  5  6  1  0
  6  7  1  0
  7  8  2  0
  7  9  2  0
  7 10  1  0
 10 11  1  0
  4 12  1  0
  3 13  1  0
 13 14  2  0
 13 15  1  0
 11  4  1  0
 12  1  1  0
M  END
>  <rName>  (1985) 
pyrrolidine-3-CO2H

>  <PQ_SYMBOL>  (1985) 
pyrrolidine-3-CO2H

>  <FULL_NAME>  (1985) 
8-thia-2-azaspiro[4.5]decane-4-carboxylic acid 8,8-dioxide

>  <IUPAC_CONDENSED>  (1985) 
pyrrolidine-3-CO2H

>  <IUPAC>  (1985) 
8,8-dioxo-8lambda^6-thia-2-azaspiro[4.5]decane-4-carboxylic acid

>  <TYPE>  (1985) 
Backbone

>  <CLASS>  (1985) 
beta

>  <ANALOG>  (1985) 
Pro

>  <MOL_WT>  (1985) 
233.28899999999996

>  <LOGP>  (1985) 
-0.5146000000000002

>  <TPSA>  (1985) 
83.47

>  <POPULARITY>  (1985) 
4.1

>  <PROTECTED>  (1985) 
TRUE

>  <SMILES>  (1985) 
N2CC(C1(CCS(=O)(=O)CC1)C2)C(=O)O

>  <INCHIKEY>  (1985) 
GZJKRBAQHOEEME-UHFFFAOYSA-N

$$$$
bAla_2ROH_3RBn
     RDKit          2D

 14 14  0  0  0  0  0  0  0  0999 V2000
   -0.7070    1.4192    0.0000 N   0  0  0  0  0  0  0  0  0  0  0  0
   -0.9504   -0.0609    0.0000 C   0  0  0  0  0  0  0  0  0  0  0  0
    0.2098   -1.0117    0.0000 C   0  0  0  0  0  0  0  0  0  0  0  0
    1.6133   -0.4824    0.0000 C   0  0  0  0  0  0  0  0  0  0  0  0
    1.8567    0.9977    0.0000 C   0  0  0  0  0  0  0  0  0  0  0  0
    3.2602    1.5270    0.0000 C   0  0  0  0  0  0  0  0  0  0  0  0
    4.4203    0.5762    0.0000 C   0  0  0  0  0  0  0  0  0  0  0  0
    4.1770   -0.9039    0.0000 C   0  0  0  0  0  0  0  0  0  0  0  0
    2.7735   -1.4332    0.0000 C   0  0  0  0  0  0  0  0  0  0  0  0
   -2.3539   -0.5902    0.0000 C   0  0  0  0  0  0  0  0  0  0  0  0
   -2.5972   -2.0704    0.0000 O   0  0  0  0  0  0  0  0  0  0  0  0
   -3.5140    0.3606    0.0000 C   0  0  0  0  0  0  0  0  0  0  0  0
   -3.2707    1.8407    0.0000 O   0  0  0  0  0  0  0  0  0  0  0  0
   -4.9175   -0.1687    0.0000 O   0  0  0  0  0  0  0  0  0  0  0  0
  2  1  1  6
  2  3  1  0
  3  4  1  0
  4  5  2  0
  5  6  1  0
  6  7  2  0
  7  8  1  0
  8  9  2  0
  2 10  1  0
 10 11  1  1
 10 12  1  0
 12 13  2  0
 12 14  1  0
  9  4  1  0
M  END
>  <rName>  (1986) 
bAla_2ROH_3RBn

>  <PQ_SYMBOL>  (1986) 
bAla_2ROH_3RBn

>  <FULL_NAME>  (1986) 
(2R,3R)-3-amino-2-hydroxy-4-phenylbutanoic acid

>  <IUPAC_CONDENSED>  (1986) 
bAla(2R-OH,3R-Bn)

>  <IUPAC>  (1986) 
(2R,3R)-3-amino-2-hydroxy-4-phenylbutanoic acid

>  <TYPE>  (1986) 
Backbone

>  <CLASS>  (1986) 
beta

>  <ANALOG>  (1986) 
Phe

>  <MOL_WT>  (1986) 
195.21799999999996

>  <LOGP>  (1986) 
0.0019000000000002348

>  <TPSA>  (1986) 
83.55

>  <POPULARITY>  (1986) 
10.9

>  <PROTECTED>  (1986) 
TRUE

>  <SMILES>  (1986) 
N[C@H](Cc1(ccccc1))[C@@H](O)C(=O)O

>  <INCHIKEY>  (1986) 
LDSJMFGYNFIFRK-RKDXNWHRSA-N

$$$$
bAla_2SOH_3SBn
     RDKit          2D

 14 14  0  0  0  0  0  0  0  0999 V2000
   -0.7070    1.4192    0.0000 N   0  0  0  0  0  0  0  0  0  0  0  0
   -0.9504   -0.0609    0.0000 C   0  0  0  0  0  0  0  0  0  0  0  0
    0.2098   -1.0117    0.0000 C   0  0  0  0  0  0  0  0  0  0  0  0
    1.6133   -0.4824    0.0000 C   0  0  0  0  0  0  0  0  0  0  0  0
    1.8567    0.9977    0.0000 C   0  0  0  0  0  0  0  0  0  0  0  0
    3.2602    1.5270    0.0000 C   0  0  0  0  0  0  0  0  0  0  0  0
    4.4203    0.5762    0.0000 C   0  0  0  0  0  0  0  0  0  0  0  0
    4.1770   -0.9039    0.0000 C   0  0  0  0  0  0  0  0  0  0  0  0
    2.7735   -1.4332    0.0000 C   0  0  0  0  0  0  0  0  0  0  0  0
   -2.3539   -0.5902    0.0000 C   0  0  0  0  0  0  0  0  0  0  0  0
   -2.5972   -2.0704    0.0000 O   0  0  0  0  0  0  0  0  0  0  0  0
   -3.5140    0.3606    0.0000 C   0  0  0  0  0  0  0  0  0  0  0  0
   -3.2707    1.8407    0.0000 O   0  0  0  0  0  0  0  0  0  0  0  0
   -4.9175   -0.1687    0.0000 O   0  0  0  0  0  0  0  0  0  0  0  0
  2  1  1  1
  2  3  1  0
  3  4  1  0
  4  5  2  0
  5  6  1  0
  6  7  2  0
  7  8  1  0
  8  9  2  0
  2 10  1  0
 10 11  1  6
 10 12  1  0
 12 13  2  0
 12 14  1  0
  9  4  1  0
M  END
>  <rName>  (1987) 
bAla_2SOH_3SBn

>  <PQ_SYMBOL>  (1987) 
bAla_2SOH_3SBn

>  <FULL_NAME>  (1987) 
(2S,3S)-3-amino-2-hydroxy-4-phenylbutanoic acid

>  <IUPAC_CONDENSED>  (1987) 
bAla(2S-OH,3S-Bn)

>  <IUPAC>  (1987) 
(2S,3S)-3-amino-2-hydroxy-4-phenylbutanoic acid

>  <TYPE>  (1987) 
Backbone

>  <CLASS>  (1987) 
beta

>  <ANALOG>  (1987) 
Phe

>  <MOL_WT>  (1987) 
195.21799999999996

>  <LOGP>  (1987) 
0.0019000000000002348

>  <TPSA>  (1987) 
83.55

>  <POPULARITY>  (1987) 
8.7

>  <PROTECTED>  (1987) 
TRUE

>  <SMILES>  (1987) 
N[C@@H](Cc1(ccccc1))[C@H](O)C(=O)O

>  <INCHIKEY>  (1987) 
LDSJMFGYNFIFRK-IUCAKERBSA-N

$$$$
Thr_2Pyranose_SSRRRSSRR
     RDKit          2D

 30 31  0  0  0  0  0  0  0  0999 V2000
   -3.8876    0.9843    0.0000 N   0  0  0  0  0  0  0  0  0  0  0  0
   -5.1036    0.1059    0.0000 C   0  0  0  0  0  0  0  0  0  0  0  0
   -4.9508   -1.3863    0.0000 C   0  0  0  0  0  0  0  0  0  0  0  0
   -3.5822   -2.0001    0.0000 O   0  0  0  0  0  0  0  0  0  0  0  0
   -2.3663   -1.1218    0.0000 C   0  0  0  0  0  0  0  0  0  0  0  0
   -2.5190    0.3705    0.0000 O   0  0  0  0  0  0  0  0  0  0  0  0
   -1.3031    1.2488    0.0000 C   0  0  0  0  0  0  0  0  0  0  0  0
   -1.4558    2.7410    0.0000 C   0  0  0  0  0  0  0  0  0  0  0  0
   -0.2399    3.6194    0.0000 O   0  0  0  0  0  0  0  0  0  0  0  0
    0.0656    0.6350    0.0000 C   0  0  0  0  0  0  0  0  0  0  0  0
    1.2815    1.5133    0.0000 O   0  0  0  0  0  0  0  0  0  0  0  0
    2.6502    0.8995    0.0000 C   0  0  0  0  0  0  0  0  0  0  0  0
    2.8029   -0.5927    0.0000 O   0  0  0  0  0  0  0  0  0  0  0  0
    4.1715   -1.2065    0.0000 C   0  0  0  0  0  0  0  0  0  0  0  0
    4.3243   -2.6987    0.0000 C   0  0  0  0  0  0  0  0  0  0  0  0
    5.6929   -3.3126    0.0000 O   0  0  0  0  0  0  0  0  0  0  0  0
    5.3875   -0.3282    0.0000 C   0  0  0  0  0  0  0  0  0  0  0  0
    6.7561   -0.9420    0.0000 O   0  0  0  0  0  0  0  0  0  0  0  0
    5.2347    1.1640    0.0000 C   0  0  0  0  0  0  0  0  0  0  0  0
    6.4507    2.0424    0.0000 O   0  0  0  0  0  0  0  0  0  0  0  0
    3.8661    1.7779    0.0000 C   0  0  0  0  0  0  0  0  0  0  0  0
    3.7134    3.2701    0.0000 O   0  0  0  0  0  0  0  0  0  0  0  0
    0.2183   -0.8572    0.0000 C   0  0  0  0  0  0  0  0  0  0  0  0
    1.5870   -1.4711    0.0000 O   0  0  0  0  0  0  0  0  0  0  0  0
   -0.9976   -1.7356    0.0000 C   0  0  0  0  0  0  0  0  0  0  0  0
   -0.8449   -3.2278    0.0000 O   0  0  0  0  0  0  0  0  0  0  0  0
   -6.1668   -2.2646    0.0000 C   0  0  0  0  0  0  0  0  0  0  0  0
   -6.4722    0.7198    0.0000 C   0  0  0  0  0  0  0  0  0  0  0  0
   -7.6881   -0.1586    0.0000 O   0  0  0  0  0  0  0  0  0  0  0  0
   -6.6249    2.2120    0.0000 O   0  0  0  0  0  0  0  0  0  0  0  0
  2  1  1  1
  2  3  1  0
  3  4  1  0
  5  4  1  6
  5  6  1  0
  6  7  1  0
  7  8  1  6
  8  9  1  0
  7 10  1  0
 10 11  1  1
 12 11  1  1
 12 13  1  0
 13 14  1  0
 14 15  1  1
 15 16  1  0
 14 17  1  0
 17 18  1  1
 17 19  1  0
 19 20  1  1
 19 21  1  0
 21 22  1  6
 10 23  1  0
 23 24  1  6
 23 25  1  0
 25 26  1  1
  3 27  1  6
  2 28  1  0
 28 29  2  0
 28 30  1  0
 21 12  1  0
 25  5  1  0
M  END
>  <rName>  (1988) 
Thr_2Pyranose_SSRRRSSRR

>  <PQ_SYMBOL>  (1988) 
Thr_2Pyranose_SSRRRSSRR

>  <FULL_NAME>  (1988) 
O-((2R,3R,4R,5S,6R)-3,4-dihydroxy-6-(hydroxymethyl)-5-(((2S,3R,4S,5R,6R)-3,4,5-trihydroxy-6-(hydroxymethyl)tetrahydro-2H-pyran-2-yl)oxy)tetrahydro-2H-pyran-2-yl)-L-threonine

>  <IUPAC_CONDENSED>  (1988) 
Thr(2Pyranose(SSRRRSSRR))

>  <IUPAC>  (1988) 
(2S,3R)-2-amino-3-(((2R,3R,4R,5S,6R)-3,4-dihydroxy-6-(hydroxymethyl)-5-(((2S,3R,4S,5R,6R)-3,4,5-trihydroxy-6-(hydroxymethyl)-oxan-2-yl)oxy)-oxan-2-yl)oxy)butanoic acid

>  <TYPE>  (1988) 
Backbone

>  <CLASS>  (1988) 
alpha

>  <ANALOG>  (1988) 
Thr

>  <MOL_WT>  (1988) 
443.4020000000001

>  <LOGP>  (1988) 
-5.572499999999991

>  <TPSA>  (1988) 
241.84999999999997

>  <POPULARITY>  (1988) 
2.7

>  <PROTECTED>  (1988) 
TRUE

>  <SMILES>  (1988) 
N[C@@H]([C@H](O[C@@H]2(O[C@H](CO)[C@@H](O[C@@H]1(O[C@H](CO)[C@H](O)[C@H](O)[C@H]1O))[C@H](O)[C@H]2O))C)C(=O)O

>  <INCHIKEY>  (1988) 
JOMCOFUFFXCKQO-MNQSMIPMSA-N

$$$$
Ser_Pyranose_RSRR
     RDKit          2D

 18 18  0  0  0  0  0  0  0  0999 V2000
   -3.8443   -1.9506    0.0000 N   0  0  0  0  0  0  0  0  0  0  0  0
   -3.5136   -0.4875    0.0000 C   0  0  0  0  0  0  0  0  0  0  0  0
   -2.0812   -0.0423    0.0000 C   0  0  0  0  0  0  0  0  0  0  0  0
   -0.9795   -1.0602    0.0000 O   0  0  0  0  0  0  0  0  0  0  0  0
    0.4529   -0.6150    0.0000 C   0  0  0  0  0  0  0  0  0  0  0  0
    0.7836    0.8481    0.0000 O   0  0  0  0  0  0  0  0  0  0  0  0
    2.2160    1.2933    0.0000 C   0  0  0  0  0  0  0  0  0  0  0  0
    2.5466    2.7564    0.0000 C   0  0  0  0  0  0  0  0  0  0  0  0
    1.4449    3.7743    0.0000 O   0  0  0  0  0  0  0  0  0  0  0  0
    3.3178    0.2754    0.0000 C   0  0  0  0  0  0  0  0  0  0  0  0
    4.7502    0.7206    0.0000 O   0  0  0  0  0  0  0  0  0  0  0  0
    2.9871   -1.1877    0.0000 C   0  0  0  0  0  0  0  0  0  0  0  0
    4.0889   -2.2056    0.0000 O   0  0  0  0  0  0  0  0  0  0  0  0
    1.5547   -1.6329    0.0000 C   0  0  0  0  0  0  0  0  0  0  0  0
    1.2240   -3.0960    0.0000 O   0  0  0  0  0  0  0  0  0  0  0  0
   -4.6154    0.5304    0.0000 C   0  0  0  0  0  0  0  0  0  0  0  0
   -4.2848    1.9935    0.0000 O   0  0  0  0  0  0  0  0  0  0  0  0
   -6.0478    0.0852    0.0000 O   0  0  0  0  0  0  0  0  0  0  0  0
  2  1  1  6
  2  3  1  0
  3  4  1  0
  5  4  1  1
  5  6  1  0
  6  7  1  0
  7  8  1  6
  8  9  1  0
  7 10  1  0
 10 11  1  1
 10 12  1  0
 12 13  1  6
 12 14  1  0
 14 15  1  6
  2 16  1  0
 16 17  2  0
 16 18  1  0
 14  5  1  0
M  END
>  <rName>  (1989) 
Ser_Pyranose_RSRR

>  <PQ_SYMBOL>  (1989) 
Ser_Pyranose_RSRR

>  <FULL_NAME>  (1989) 
O-((2S,3S,4S,5S,6R)-3,4,5-trihydroxy-6-(hydroxymethyl)tetrahydro-2H-pyran-2-yl)-L-serine

>  <IUPAC_CONDENSED>  (1989) 
Ser(Pyranose(RSRR))

>  <IUPAC>  (1989) 
(2S)-2-amino-3-(((2S,3S,4S,5S,6R)-3,4,5-trihydroxy-6-(hydroxymethyl)-oxan-2-yl)oxy)propanoic acid

>  <TYPE>  (1989) 
Backbone

>  <CLASS>  (1989) 
alpha

>  <ANALOG>  (1989) 
Ser

>  <MOL_WT>  (1989) 
267.234

>  <LOGP>  (1989) 
-3.785199999999998

>  <TPSA>  (1989) 
162.70000000000002

>  <POPULARITY>  (1989) 
3.4

>  <PROTECTED>  (1989) 
TRUE

>  <SMILES>  (1989) 
N[C@@H](CO[C@H]1(O[C@H](CO)[C@@H](O)[C@H](O)[C@@H]1O))C(=O)O

>  <INCHIKEY>  (1989) 
HGTOXWOVJAONKK-DHGOSONXSA-N

$$$$
Thr_Pyranose_RSRR
     RDKit          2D

 19 19  0  0  0  0  0  0  0  0999 V2000
   -1.1225    0.9369    0.0000 N   0  0  0  0  0  0  0  0  0  0  0  0
   -2.2840   -0.0122    0.0000 C   0  0  0  0  0  0  0  0  0  0  0  0
   -2.0427   -1.4927    0.0000 C   0  0  0  0  0  0  0  0  0  0  0  0
   -0.6400   -2.0240    0.0000 O   0  0  0  0  0  0  0  0  0  0  0  0
    0.5215   -1.0749    0.0000 C   0  0  0  0  0  0  0  0  0  0  0  0
    0.2803    0.4056    0.0000 O   0  0  0  0  0  0  0  0  0  0  0  0
    1.4418    1.3548    0.0000 C   0  0  0  0  0  0  0  0  0  0  0  0
    1.2005    2.8353    0.0000 C   0  0  0  0  0  0  0  0  0  0  0  0
   -0.2023    3.3666    0.0000 O   0  0  0  0  0  0  0  0  0  0  0  0
    2.8445    0.8235    0.0000 C   0  0  0  0  0  0  0  0  0  0  0  0
    4.0060    1.7727    0.0000 O   0  0  0  0  0  0  0  0  0  0  0  0
    3.0858   -0.6570    0.0000 C   0  0  0  0  0  0  0  0  0  0  0  0
    4.4885   -1.1883    0.0000 O   0  0  0  0  0  0  0  0  0  0  0  0
    1.9243   -1.6062    0.0000 C   0  0  0  0  0  0  0  0  0  0  0  0
    2.1655   -3.0866    0.0000 O   0  0  0  0  0  0  0  0  0  0  0  0
   -3.2042   -2.4419    0.0000 C   0  0  0  0  0  0  0  0  0  0  0  0
   -3.6867    0.5191    0.0000 C   0  0  0  0  0  0  0  0  0  0  0  0
   -4.8482   -0.4301    0.0000 O   0  0  0  0  0  0  0  0  0  0  0  0
   -3.9280    1.9995    0.0000 O   0  0  0  0  0  0  0  0  0  0  0  0
  2  1  1  1
  2  3  1  0
  3  4  1  0
  5  4  1  1
  5  6  1  0
  6  7  1  0
  7  8  1  6
  8  9  1  0
  7 10  1  0
 10 11  1  1
 10 12  1  0
 12 13  1  6
 12 14  1  0
 14 15  1  6
  3 16  1  6
  2 17  1  0
 17 18  2  0
 17 19  1  0
 14  5  1  0
M  END
>  <rName>  (1990) 
Thr_Pyranose_RSRR

>  <PQ_SYMBOL>  (1990) 
Thr_Pyranose_RSRR

>  <FULL_NAME>  (1990) 
O-((2S,3S,4S,5S,6R)-3,4,5-trihydroxy-6-(hydroxymethyl)tetrahydro-2H-pyran-2-yl)-L-threonine

>  <IUPAC_CONDENSED>  (1990) 
Thr(Pyranose(RSRR))

>  <IUPAC>  (1990) 
(2S,3R)-2-amino-3-(((2S,3S,4S,5S,6R)-3,4,5-trihydroxy-6-(hydroxymethyl)-oxan-2-yl)oxy)butanoic acid

>  <TYPE>  (1990) 
Backbone

>  <CLASS>  (1990) 
alpha

>  <ANALOG>  (1990) 
Thr

>  <MOL_WT>  (1990) 
281.261

>  <LOGP>  (1990) 
-3.3966999999999974

>  <TPSA>  (1990) 
162.70000000000002

>  <POPULARITY>  (1990) 
3.3

>  <PROTECTED>  (1990) 
TRUE

>  <SMILES>  (1990) 
N[C@@H]([C@H](O[C@H]1(O[C@H](CO)[C@@H](O)[C@H](O)[C@@H]1O))C)C(=O)O

>  <INCHIKEY>  (1990) 
DHIKRLNYEAMDOC-RBCVCIGJSA-N

$$$$
Asn_Pyranoseamino_RSSR
     RDKit          2D

 20 20  0  0  0  0  0  0  0  0999 V2000
   -3.7760    1.7057    0.0000 N   0  0  0  0  0  0  0  0  0  0  0  0
   -4.0545    0.2318    0.0000 C   0  0  0  0  0  0  0  0  0  0  0  0
   -2.9173   -0.7463    0.0000 C   0  0  0  0  0  0  0  0  0  0  0  0
   -1.5016   -0.2506    0.0000 C   0  0  0  0  0  0  0  0  0  0  0  0
   -1.2231    1.2234    0.0000 O   0  0  0  0  0  0  0  0  0  0  0  0
   -0.3644   -1.2287    0.0000 N   0  0  0  0  0  0  0  0  0  0  0  0
    1.0513   -0.7329    0.0000 C   0  0  0  0  0  0  0  0  0  0  0  0
    1.3298    0.7410    0.0000 O   0  0  0  0  0  0  0  0  0  0  0  0
    2.7455    1.2368    0.0000 C   0  0  0  0  0  0  0  0  0  0  0  0
    3.0240    2.7107    0.0000 C   0  0  0  0  0  0  0  0  0  0  0  0
    1.8868    3.6888    0.0000 O   0  0  0  0  0  0  0  0  0  0  0  0
    3.8827    0.2586    0.0000 C   0  0  0  0  0  0  0  0  0  0  0  0
    5.2984    0.7544    0.0000 O   0  0  0  0  0  0  0  0  0  0  0  0
    3.6042   -1.2153    0.0000 C   0  0  0  0  0  0  0  0  0  0  0  0
    4.7414   -2.1935    0.0000 O   0  0  0  0  0  0  0  0  0  0  0  0
    2.1885   -1.7111    0.0000 C   0  0  0  0  0  0  0  0  0  0  0  0
    1.9100   -3.1850    0.0000 N   0  0  0  0  0  0  0  0  0  0  0  0
   -5.4702   -0.2640    0.0000 C   0  0  0  0  0  0  0  0  0  0  0  0
   -5.7487   -1.7379    0.0000 O   0  0  0  0  0  0  0  0  0  0  0  0
   -6.6074    0.7142    0.0000 O   0  0  0  0  0  0  0  0  0  0  0  0
  2  1  1  1
  2  3  1  0
  3  4  1  0
  4  5  2  0
  4  6  1  0
  7  6  1  6
  7  8  1  0
  8  9  1  0
  9 10  1  6
 10 11  1  0
  9 12  1  0
 12 13  1  1
 12 14  1  0
 14 15  1  6
 14 16  1  0
 16 17  1  1
  2 18  1  0
 18 19  2  0
 18 20  1  0
 16  7  1  0
M  END
>  <rName>  (1991) 
Asn_Pyranoseamino_RSSR

>  <PQ_SYMBOL>  (1991) 
Asn_Pyranoseamino_RSSR

>  <FULL_NAME>  (1991) 
N4-((2R,3R,4R,5S,6R)-3-amino-4,5-dihydroxy-6-(hydroxymethyl)tetrahydro-2H-pyran-2-yl)-L-asparagine

>  <IUPAC_CONDENSED>  (1991) 
Asn(Pyranose-amino(RSSR))

>  <IUPAC>  (1991) 
(2S)-2-amino-3-(((2R,3R,4R,5S,6R)-3-amino-4,5-dihydroxy-6-(hydroxymethyl)-oxan-2-yl)carbamoyl)propanoic acid

>  <TYPE>  (1991) 
Backbone

>  <CLASS>  (1991) 
alpha

>  <ANALOG>  (1991) 
Asn

>  <MOL_WT>  (1991) 
293.276

>  <LOGP>  (1991) 
-4.329099999999996

>  <TPSA>  (1991) 
188.36

>  <POPULARITY>  (1991) 
5.2

>  <PROTECTED>  (1991) 
TRUE

>  <SMILES>  (1991) 
N[C@@H](CC(=O)N[C@@H]1(O[C@H](CO)[C@@H](O)[C@H](O)[C@H]1N))C(=O)O

>  <INCHIKEY>  (1991) 
UJNXGXPCWBVQPR-JFFCJIMJSA-N

$$$$
Thr_Pyranoseamino_R
     RDKit          2D

 19 19  0  0  0  0  0  0  0  0999 V2000
   -1.1225    0.9369    0.0000 N   0  0  0  0  0  0  0  0  0  0  0  0
   -2.2840   -0.0122    0.0000 C   0  0  0  0  0  0  0  0  0  0  0  0
   -2.0427   -1.4927    0.0000 C   0  0  0  0  0  0  0  0  0  0  0  0
   -0.6400   -2.0240    0.0000 O   0  0  0  0  0  0  0  0  0  0  0  0
    0.5215   -1.0749    0.0000 C   0  0  0  0  0  0  0  0  0  0  0  0
    0.2803    0.4056    0.0000 O   0  0  0  0  0  0  0  0  0  0  0  0
    1.4418    1.3548    0.0000 C   0  0  0  0  0  0  0  0  0  0  0  0
    1.2005    2.8353    0.0000 C   0  0  0  0  0  0  0  0  0  0  0  0
   -0.2023    3.3666    0.0000 O   0  0  0  0  0  0  0  0  0  0  0  0
    2.8445    0.8235    0.0000 C   0  0  0  0  0  0  0  0  0  0  0  0
    4.0060    1.7727    0.0000 O   0  0  0  0  0  0  0  0  0  0  0  0
    3.0858   -0.6570    0.0000 C   0  0  0  0  0  0  0  0  0  0  0  0
    4.4885   -1.1883    0.0000 O   0  0  0  0  0  0  0  0  0  0  0  0
    1.9243   -1.6062    0.0000 C   0  0  0  0  0  0  0  0  0  0  0  0
    2.1655   -3.0866    0.0000 N   0  0  0  0  0  0  0  0  0  0  0  0
   -3.2042   -2.4419    0.0000 C   0  0  0  0  0  0  0  0  0  0  0  0
   -3.6867    0.5191    0.0000 C   0  0  0  0  0  0  0  0  0  0  0  0
   -4.8482   -0.4301    0.0000 O   0  0  0  0  0  0  0  0  0  0  0  0
   -3.9280    1.9995    0.0000 O   0  0  0  0  0  0  0  0  0  0  0  0
  2  1  1  1
  2  3  1  0
  3  4  1  0
  5  4  1  6
  5  6  1  0
  6  7  1  0
  7  8  1  0
  8  9  1  0
  7 10  1  0
 10 11  1  6
 10 12  1  0
 12 13  1  0
 12 14  1  0
 14 15  1  0
  3 16  1  6
  2 17  1  0
 17 18  2  0
 17 19  1  0
 14  5  1  0
M  END
>  <rName>  (1992) 
Thr_Pyranoseamino_R

>  <PQ_SYMBOL>  (1992) 
Thr_Pyranoseamino_R

>  <FULL_NAME>  (1992) 
O-((2R,5R)-3-amino-4,5-dihydroxy-6-(hydroxymethyl)tetrahydro-2H-pyran-2-yl)-L-threonine

>  <IUPAC_CONDENSED>  (1992) 
Thr(Pyranose-amino(R))

>  <IUPAC>  (1992) 
(2S,3R)-2-amino-3-(((2R,5R)-3-amino-4,5-dihydroxy-6-(hydroxymethyl)-oxan-2-yl)oxy)butanoic acid

>  <TYPE>  (1992) 
Backbone

>  <CLASS>  (1992) 
alpha

>  <ANALOG>  (1992) 
Thr

>  <MOL_WT>  (1992) 
280.27700000000004

>  <LOGP>  (1992) 
-3.4302999999999946

>  <TPSA>  (1992) 
168.49

>  <POPULARITY>  (1992) 
3.4

>  <PROTECTED>  (1992) 
TRUE

>  <SMILES>  (1992) 
N[C@@H]([C@H](O[C@@H]1(OC(CO)[C@H](O)C(O)C1N))C)C(=O)O

>  <INCHIKEY>  (1992) 
FNKMCNJVMOTWSA-RZQJWBPASA-N

$$$$
Ser_2Pyranoseamino_RSRRRRSRR
     RDKit          2D

 29 30  0  0  0  0  0  0  0  0999 V2000
   -3.7266   -3.4721    0.0000 N   0  0  0  0  0  0  0  0  0  0  0  0
   -4.5443   -2.2146    0.0000 C   0  0  0  0  0  0  0  0  0  0  0  0
   -3.8641   -0.8777    0.0000 C   0  0  0  0  0  0  0  0  0  0  0  0
   -2.3662   -0.7983    0.0000 O   0  0  0  0  0  0  0  0  0  0  0  0
   -1.6860    0.5386    0.0000 C   0  0  0  0  0  0  0  0  0  0  0  0
   -2.5037    1.7962    0.0000 O   0  0  0  0  0  0  0  0  0  0  0  0
   -1.8235    3.1331    0.0000 C   0  0  0  0  0  0  0  0  0  0  0  0
   -2.6412    4.3906    0.0000 C   0  0  0  0  0  0  0  0  0  0  0  0
   -4.1391    4.3112    0.0000 O   0  0  0  0  0  0  0  0  0  0  0  0
   -0.3256    3.2125    0.0000 C   0  0  0  0  0  0  0  0  0  0  0  0
    0.3546    4.5494    0.0000 O   0  0  0  0  0  0  0  0  0  0  0  0
    0.4921    1.9549    0.0000 C   0  0  0  0  0  0  0  0  0  0  0  0
    1.9900    2.0343    0.0000 O   0  0  0  0  0  0  0  0  0  0  0  0
    2.8077    0.7768    0.0000 C   0  0  0  0  0  0  0  0  0  0  0  0
    2.1275   -0.5601    0.0000 O   0  0  0  0  0  0  0  0  0  0  0  0
    2.9452   -1.8176    0.0000 C   0  0  0  0  0  0  0  0  0  0  0  0
    2.2650   -3.1545    0.0000 C   0  0  0  0  0  0  0  0  0  0  0  0
    3.0827   -4.4121    0.0000 O   0  0  0  0  0  0  0  0  0  0  0  0
    4.4430   -1.7382    0.0000 C   0  0  0  0  0  0  0  0  0  0  0  0
    5.2607   -2.9958    0.0000 O   0  0  0  0  0  0  0  0  0  0  0  0
    5.1232   -0.4013    0.0000 C   0  0  0  0  0  0  0  0  0  0  0  0
    6.6211   -0.3219    0.0000 O   0  0  0  0  0  0  0  0  0  0  0  0
    4.3055    0.8562    0.0000 C   0  0  0  0  0  0  0  0  0  0  0  0
    4.9857    2.1931    0.0000 O   0  0  0  0  0  0  0  0  0  0  0  0
   -0.1881    0.6180    0.0000 C   0  0  0  0  0  0  0  0  0  0  0  0
    0.6296   -0.6395    0.0000 N   0  0  0  0  0  0  0  0  0  0  0  0
   -6.0422   -2.2939    0.0000 C   0  0  0  0  0  0  0  0  0  0  0  0
   -6.8599   -1.0364    0.0000 O   0  0  0  0  0  0  0  0  0  0  0  0
   -6.7224   -3.6309    0.0000 O   0  0  0  0  0  0  0  0  0  0  0  0
  2  1  1  6
  2  3  1  0
  3  4  1  0
  5  4  1  1
  5  6  1  0
  6  7  1  0
  7  8  1  6
  8  9  1  0
  7 10  1  0
 10 11  1  6
 10 12  1  0
 12 13  1  6
 14 13  1  1
 14 15  1  0
 15 16  1  0
 16 17  1  1
 17 18  1  0
 16 19  1  0
 19 20  1  1
 19 21  1  0
 21 22  1  1
 21 23  1  0
 23 24  1  6
 12 25  1  0
 25 26  1  1
  2 27  1  0
 27 28  2  0
 27 29  1  0
 23 14  1  0
 25  5  1  0
M  END
>  <rName>  (1993) 
Ser_2Pyranoseamino_RSRRRRSRR

>  <PQ_SYMBOL>  (1993) 
Ser_2Pyranoseamino_RSRRRRSRR

>  <FULL_NAME>  (1993) 
O-((2S,3R,4R,5R,6R)-3-amino-5-hydroxy-6-(hydroxymethyl)-4-(((2R,3R,4S,5R,6R)-3,4,5-trihydroxy-6-(hydroxymethyl)tetrahydro-2H-pyran-2-yl)oxy)tetrahydro-2H-pyran-2-yl)-L-serine

>  <IUPAC_CONDENSED>  (1993) 
Ser(2Pyranose-amino(RSRRRRSRR))

>  <IUPAC>  (1993) 
(2S)-2-amino-3-(((2S,3R,4R,5R,6R)-3-amino-5-hydroxy-6-(hydroxymethyl)-4-(((2R,3R,4S,5R,6R)-3,4,5-trihydroxy-6-(hydroxymethyl)-oxan-2-yl)oxy)-oxan-2-yl)oxy)propanoic acid

>  <TYPE>  (1993) 
Backbone

>  <CLASS>  (1993) 
alpha

>  <ANALOG>  (1993) 
Ser

>  <MOL_WT>  (1993) 
428.3910000000001

>  <LOGP>  (1993) 
-5.994599999999992

>  <TPSA>  (1993) 
247.64

>  <POPULARITY>  (1993) 
5.1

>  <PROTECTED>  (1993) 
TRUE

>  <SMILES>  (1993) 
N[C@@H](CO[C@H]2(O[C@H](CO)[C@H](O)[C@H](O[C@@H]1(O[C@H](CO)[C@H](O)[C@H](O)[C@H]1O))[C@H]2N))C(=O)O

>  <INCHIKEY>  (1993) 
KSYHRIDQDOKYMX-QGIQHFMVSA-N

$$$$
Thr_2Pyranoseamino_RSRRRRSRR
     RDKit          2D

 30 31  0  0  0  0  0  0  0  0999 V2000
   -4.0074    0.4135    0.0000 N   0  0  0  0  0  0  0  0  0  0  0  0
   -4.3818   -1.0390    0.0000 C   0  0  0  0  0  0  0  0  0  0  0  0
   -3.3112   -2.0895    0.0000 C   0  0  0  0  0  0  0  0  0  0  0  0
   -1.8660   -1.6876    0.0000 O   0  0  0  0  0  0  0  0  0  0  0  0
   -1.4916   -0.2351    0.0000 C   0  0  0  0  0  0  0  0  0  0  0  0
   -2.5622    0.8155    0.0000 O   0  0  0  0  0  0  0  0  0  0  0  0
   -2.1878    2.2680    0.0000 C   0  0  0  0  0  0  0  0  0  0  0  0
   -3.2584    3.3185    0.0000 C   0  0  0  0  0  0  0  0  0  0  0  0
   -4.7036    2.9166    0.0000 O   0  0  0  0  0  0  0  0  0  0  0  0
   -0.7426    2.6699    0.0000 C   0  0  0  0  0  0  0  0  0  0  0  0
   -0.3682    4.1224    0.0000 O   0  0  0  0  0  0  0  0  0  0  0  0
    0.3281    1.6194    0.0000 C   0  0  0  0  0  0  0  0  0  0  0  0
    1.7732    2.0213    0.0000 O   0  0  0  0  0  0  0  0  0  0  0  0
    2.8439    0.9708    0.0000 C   0  0  0  0  0  0  0  0  0  0  0  0
    2.4694   -0.4817    0.0000 O   0  0  0  0  0  0  0  0  0  0  0  0
    3.5401   -1.5323    0.0000 C   0  0  0  0  0  0  0  0  0  0  0  0
    3.1656   -2.9848    0.0000 C   0  0  0  0  0  0  0  0  0  0  0  0
    4.2363   -4.0353    0.0000 O   0  0  0  0  0  0  0  0  0  0  0  0
    4.9852   -1.1303    0.0000 C   0  0  0  0  0  0  0  0  0  0  0  0
    6.0559   -2.1809    0.0000 O   0  0  0  0  0  0  0  0  0  0  0  0
    5.3597    0.3222    0.0000 C   0  0  0  0  0  0  0  0  0  0  0  0
    6.8048    0.7241    0.0000 O   0  0  0  0  0  0  0  0  0  0  0  0
    4.2890    1.3727    0.0000 C   0  0  0  0  0  0  0  0  0  0  0  0
    4.6635    2.8252    0.0000 O   0  0  0  0  0  0  0  0  0  0  0  0
   -0.0464    0.1669    0.0000 C   0  0  0  0  0  0  0  0  0  0  0  0
    1.0243   -0.8837    0.0000 N   0  0  0  0  0  0  0  0  0  0  0  0
   -3.6856   -3.5421    0.0000 C   0  0  0  0  0  0  0  0  0  0  0  0
   -5.8270   -1.4409    0.0000 C   0  0  0  0  0  0  0  0  0  0  0  0
   -6.2014   -2.8935    0.0000 O   0  0  0  0  0  0  0  0  0  0  0  0
   -6.8977   -0.3904    0.0000 O   0  0  0  0  0  0  0  0  0  0  0  0
  2  1  1  1
  2  3  1  0
  3  4  1  0
  5  4  1  1
  5  6  1  0
  6  7  1  0
  7  8  1  6
  8  9  1  0
  7 10  1  0
 10 11  1  6
 10 12  1  0
 12 13  1  6
 14 13  1  1
 14 15  1  0
 15 16  1  0
 16 17  1  1
 17 18  1  0
 16 19  1  0
 19 20  1  1
 19 21  1  0
 21 22  1  1
 21 23  1  0
 23 24  1  6
 12 25  1  0
 25 26  1  1
  3 27  1  6
  2 28  1  0
 28 29  2  0
 28 30  1  0
 23 14  1  0
 25  5  1  0
M  END
>  <rName>  (1994) 
Thr_2Pyranoseamino_RSRRRRSRR

>  <PQ_SYMBOL>  (1994) 
Thr_2Pyranoseamino_RSRRRRSRR

>  <FULL_NAME>  (1994) 
O-((2S,3R,4R,5R,6R)-3-amino-5-hydroxy-6-(hydroxymethyl)-4-(((2R,3R,4S,5R,6R)-3,4,5-trihydroxy-6-(hydroxymethyl)tetrahydro-2H-pyran-2-yl)oxy)tetrahydro-2H-pyran-2-yl)-L-threonine

>  <IUPAC_CONDENSED>  (1994) 
Thr(2Pyranose-amino(RSRRRRSRR))

>  <IUPAC>  (1994) 
(2S,3R)-2-amino-3-(((2S,3R,4R,5R,6R)-3-amino-5-hydroxy-6-(hydroxymethyl)-4-(((2R,3R,4S,5R,6R)-3,4,5-trihydroxy-6-(hydroxymethyl)-oxan-2-yl)oxy)-oxan-2-yl)oxy)butanoic acid

>  <TYPE>  (1994) 
Backbone

>  <CLASS>  (1994) 
alpha

>  <ANALOG>  (1994) 
Thr

>  <MOL_WT>  (1994) 
442.4180000000001

>  <LOGP>  (1994) 
-5.606099999999992

>  <TPSA>  (1994) 
247.64

>  <POPULARITY>  (1994) 
5.1

>  <PROTECTED>  (1994) 
TRUE

>  <SMILES>  (1994) 
N[C@@H]([C@H](O[C@H]2(O[C@H](CO)[C@H](O)[C@H](O[C@@H]1(O[C@H](CO)[C@H](O)[C@H](O)[C@H]1O))[C@H]2N))C)C(=O)O

>  <INCHIKEY>  (1994) 
RLWCXQUOLYUIEU-UOSNNGKOSA-N

$$$$
Glu-Cl
     RDKit          2D

 10  9  0  0  0  0  0  0  0  0999 V2000
    1.2717   -1.9622    0.0000 N   0  0  0  0  0  0  0  0  0  0  0  0
    1.1946   -0.4642    0.0000 C   0  0  0  0  0  0  0  0  0  0  0  0
    2.4533    0.3516    0.0000 C   0  0  0  0  0  0  0  0  0  0  0  0
    3.7892   -0.3306    0.0000 O   0  0  0  0  0  0  0  0  0  0  0  0
    2.3762    1.8496    0.0000 Cl  0  0  0  0  0  0  0  0  0  0  0  0
   -0.1413    0.2180    0.0000 C   0  0  0  0  0  0  0  0  0  0  0  0
   -1.4001   -0.5978    0.0000 C   0  0  0  0  0  0  0  0  0  0  0  0
   -2.7359    0.0845    0.0000 C   0  0  0  0  0  0  0  0  0  0  0  0
   -2.8131    1.5825    0.0000 O   0  0  0  0  0  0  0  0  0  0  0  0
   -3.9947   -0.7313    0.0000 O   0  0  0  0  0  0  0  0  0  0  0  0
  2  1  1  1
  2  3  1  0
  3  4  2  0
  3  5  1  0
  2  6  1  0
  6  7  1  0
  7  8  1  0
  8  9  2  0
  8 10  1  0
M  END
>  <rName>  (1995) 
Glu-Cl

>  <PQ_SYMBOL>  (1995) 
Glu-Cl

>  <FULL_NAME>  (1995) 
(S)-4-amino-5-chloro-5-oxopentanoic acid

>  <IUPAC_CONDENSED>  (1995) 
Glu-Cl

>  <IUPAC>  (1995) 
(4S)-4-amino-4-(chlorocarbonyl)butanoic acid

>  <TYPE>  (1995) 
Backbone

>  <CLASS>  (1995) 
gamma

>  <ANALOG>  (1995) 
X

>  <MOL_WT>  (1995) 
165.576

>  <LOGP>  (1995) 
-0.056100000000000094

>  <TPSA>  (1995) 
80.39

>  <POPULARITY>  (1995) 
3

>  <PROTECTED>  (1995) 
TRUE

>  <SMILES>  (1995) 
N[C@H](C(=O)Cl)CCC(=O)O

>  <INCHIKEY>  (1995) 
MNCCGMMMOFFNMM-VKHMYHEASA-N

$$$$
bAla_3RCONHPh_4NO2
     RDKit          2D

 18 18  0  0  0  0  0  0  0  0999 V2000
   -3.4368   -1.7323    0.0000 N   0  0  0  0  0  0  0  0  0  0  0  0
   -3.0170   -0.2923    0.0000 C   0  0  0  0  0  0  0  0  0  0  0  0
   -1.5599    0.0642    0.0000 C   0  0  0  0  0  0  0  0  0  0  0  0
   -1.1401    1.5042    0.0000 O   0  0  0  0  0  0  0  0  0  0  0  0
   -0.5227   -1.0194    0.0000 N   0  0  0  0  0  0  0  0  0  0  0  0
    0.9343   -0.6630    0.0000 C   0  0  0  0  0  0  0  0  0  0  0  0
    1.3541    0.7771    0.0000 C   0  0  0  0  0  0  0  0  0  0  0  0
    2.8112    1.1335    0.0000 C   0  0  0  0  0  0  0  0  0  0  0  0
    3.8484    0.0499    0.0000 C   0  0  0  0  0  0  0  0  0  0  0  0
    3.4286   -1.3901    0.0000 C   0  0  0  0  0  0  0  0  0  0  0  0
    1.9715   -1.7466    0.0000 C   0  0  0  0  0  0  0  0  0  0  0  0
    5.3054    0.4064    0.0000 N   0  0  0  0  0  0  0  0  0  0  0  0
    5.7252    1.8464    0.0000 O   0  0  0  0  0  0  0  0  0  0  0  0
    6.3426   -0.6772    0.0000 O   0  0  0  0  0  0  0  0  0  0  0  0
   -4.0542    0.7913    0.0000 C   0  0  0  0  0  0  0  0  0  0  0  0
   -5.5112    0.4349    0.0000 C   0  0  0  0  0  0  0  0  0  0  0  0
   -5.9310   -1.0052    0.0000 O   0  0  0  0  0  0  0  0  0  0  0  0
   -6.5484    1.5185    0.0000 O   0  0  0  0  0  0  0  0  0  0  0  0
  2  1  1  1
  2  3  1  0
  3  4  2  0
  3  5  1  0
  5  6  1  0
  6  7  1  0
  7  8  2  0
  8  9  1  0
  9 10  2  0
 10 11  1  0
  9 12  1  0
 12 13  2  0
 12 14  1  0
  2 15  1  0
 15 16  1  0
 16 17  2  0
 16 18  1  0
 11  6  2  0
M  CHG  2  12   1  14  -1
M  END
>  <rName>  (1996) 
bAla_3RCONHPh_4NO2

>  <PQ_SYMBOL>  (1996) 
bAla_3RCONHPh_4NO2

>  <FULL_NAME>  (1996) 
(S)-3-amino-4-((4-nitrophenyl)amino)-4-oxobutanoic acid

>  <IUPAC_CONDENSED>  (1996) 
Asp-pNA

>  <IUPAC>  (1996) 
(3S)-3-amino-3-((4-nitrophenyl)carbamoyl)propanoic acid

>  <TYPE>  (1996) 
Backbone

>  <CLASS>  (1996) 
beta

>  <ANALOG>  (1996) 
X

>  <MOL_WT>  (1996) 
253.21399999999997

>  <LOGP>  (1996) 
0.33529999999999943

>  <TPSA>  (1996) 
135.56

>  <POPULARITY>  (1996) 
4.7

>  <PROTECTED>  (1996) 
TRUE

>  <SMILES>  (1996) 
N[C@H](C(=O)Nc1(ccc(cc1)[N+](=O)[O-]))CC(=O)O

>  <INCHIKEY>  (1996) 
JPSVAMXHSUXSEY-QMMMGPOBSA-N

$$$$
D-Asp_Ph_2iPr
     RDKit          2D

 18 18  0  0  0  0  0  0  0  0999 V2000
   -3.5569    1.7503    0.0000 N   0  0  0  0  0  0  0  0  0  0  0  0
   -3.5394    0.2504    0.0000 C   0  0  0  0  0  0  0  0  0  0  0  0
   -2.2317   -0.4844    0.0000 C   0  0  0  0  0  0  0  0  0  0  0  0
   -0.9415    0.2807    0.0000 C   0  0  0  0  0  0  0  0  0  0  0  0
   -0.9590    1.7806    0.0000 O   0  0  0  0  0  0  0  0  0  0  0  0
    0.3662   -0.4541    0.0000 O   0  0  0  0  0  0  0  0  0  0  0  0
    1.6564    0.3110    0.0000 C   0  0  0  0  0  0  0  0  0  0  0  0
    1.6389    1.8109    0.0000 C   0  0  0  0  0  0  0  0  0  0  0  0
    2.9291    2.5760    0.0000 C   0  0  0  0  0  0  0  0  0  0  0  0
    4.2368    1.8412    0.0000 C   0  0  0  0  0  0  0  0  0  0  0  0
    4.2543    0.3413    0.0000 C   0  0  0  0  0  0  0  0  0  0  0  0
    2.9641   -0.4238    0.0000 C   0  0  0  0  0  0  0  0  0  0  0  0
    2.9816   -1.9237    0.0000 C   0  0  0  0  0  0  0  0  0  0  0  0
    1.6914   -2.6888    0.0000 C   0  0  0  0  0  0  0  0  0  0  0  0
    4.2893   -2.6585    0.0000 C   0  0  0  0  0  0  0  0  0  0  0  0
   -4.8296   -0.5147    0.0000 C   0  0  0  0  0  0  0  0  0  0  0  0
   -4.8121   -2.0146    0.0000 O   0  0  0  0  0  0  0  0  0  0  0  0
   -6.1373    0.2201    0.0000 O   0  0  0  0  0  0  0  0  0  0  0  0
  2  1  1  6
  2  3  1  0
  3  4  1  0
  4  5  2  0
  4  6  1  0
  6  7  1  0
  7  8  2  0
  8  9  1  0
  9 10  2  0
 10 11  1  0
 11 12  2  0
 12 13  1  0
 13 14  1  0
 13 15  1  0
  2 16  1  0
 16 17  2  0
 16 18  1  0
 12  7  1  0
M  END
>  <rName>  (1997) 
D-Asp_Ph_2iPr

>  <PQ_SYMBOL>  (1997) 
D-Asp_Ph_2iPr

>  <FULL_NAME>  (1997) 
(R)-2-amino-4-(2-isopropylphenoxy)-4-oxobutanoic acid

>  <IUPAC_CONDENSED>  (1997) 
D-Asp(Ph(2-iPr))

>  <IUPAC>  (1997) 
(2R)-2-amino-3-(((2-(propan-2-yl)phenyl)oxy)carbonyl)propanoic acid

>  <TYPE>  (1997) 
Backbone

>  <CLASS>  (1997) 
alpha

>  <ANALOG>  (1997) 
Asp

>  <MOL_WT>  (1997) 
251.28199999999998

>  <LOGP>  (1997) 
1.5173999999999996

>  <TPSA>  (1997) 
89.62000000000002

>  <POPULARITY>  (1997) 
3.1

>  <PROTECTED>  (1997) 
TRUE

>  <SMILES>  (1997) 
N[C@H](CC(=O)Oc1(ccccc1C(C)C))C(=O)O

>  <INCHIKEY>  (1997) 
XFXMAOINGRMANA-SNVBAGLBSA-N

$$$$
bAla_2ROH_3RPh_4OMe
     RDKit          2D

 15 15  0  0  0  0  0  0  0  0999 V2000
   -1.7327   -2.0803    0.0000 N   0  0  0  0  0  0  0  0  0  0  0  0
   -1.2887   -0.6475    0.0000 C   0  0  0  0  0  0  0  0  0  0  0  0
    0.1742   -0.3157    0.0000 C   0  0  0  0  0  0  0  0  0  0  0  0
    0.6182    1.1171    0.0000 C   0  0  0  0  0  0  0  0  0  0  0  0
    2.0810    1.4489    0.0000 C   0  0  0  0  0  0  0  0  0  0  0  0
    3.0998    0.3479    0.0000 C   0  0  0  0  0  0  0  0  0  0  0  0
    4.5627    0.6798    0.0000 O   0  0  0  0  0  0  0  0  0  0  0  0
    5.5815   -0.4212    0.0000 C   0  0  0  0  0  0  0  0  0  0  0  0
    2.6558   -1.0848    0.0000 C   0  0  0  0  0  0  0  0  0  0  0  0
    1.1929   -1.4166    0.0000 C   0  0  0  0  0  0  0  0  0  0  0  0
   -2.3075    0.4534    0.0000 C   0  0  0  0  0  0  0  0  0  0  0  0
   -1.8634    1.8862    0.0000 O   0  0  0  0  0  0  0  0  0  0  0  0
   -3.7703    0.1216    0.0000 C   0  0  0  0  0  0  0  0  0  0  0  0
   -4.2144   -1.3112    0.0000 O   0  0  0  0  0  0  0  0  0  0  0  0
   -4.7891    1.2225    0.0000 O   0  0  0  0  0  0  0  0  0  0  0  0
  2  1  1  1
  2  3  1  0
  3  4  1  0
  4  5  2  0
  5  6  1  0
  6  7  1  0
  7  8  1  0
  6  9  2  0
  9 10  1  0
  2 11  1  0
 11 12  1  6
 11 13  1  0
 13 14  2  0
 13 15  1  0
 10  3  2  0
M  END
>  <rName>  (1998) 
bAla_2ROH_3RPh_4OMe

>  <PQ_SYMBOL>  (1998) 
bAla_2ROH_3RPh_4OMe

>  <FULL_NAME>  (1998) 
(2R,3R)-3-amino-2-hydroxy-3-(4-methoxyphenyl)propanoic acid

>  <IUPAC_CONDENSED>  (1998) 
bAla(2R-OH,3R-Ph(4-OMe))

>  <IUPAC>  (1998) 
(2R,3R)-3-amino-2-hydroxy-3-(4-methoxyphenyl)propanoic acid

>  <TYPE>  (1998) 
Backbone

>  <CLASS>  (1998) 
beta

>  <ANALOG>  (1998) 
X

>  <MOL_WT>  (1998) 
211.21699999999998

>  <LOGP>  (1998) 
0.14050000000000007

>  <TPSA>  (1998) 
92.78000000000002

>  <POPULARITY>  (1998) 
5.2

>  <PROTECTED>  (1998) 
TRUE

>  <SMILES>  (1998) 
N[C@H](c1(ccc(OC)cc1))[C@@H](O)C(=O)O

>  <INCHIKEY>  (1998) 
CMDQTUROESJWHM-RKDXNWHRSA-N

$$$$
bAla_2ROH_3RPh_3Me
     RDKit          2D

 14 14  0  0  0  0  0  0  0  0999 V2000
   -1.0270   -2.0473    0.0000 N   0  0  0  0  0  0  0  0  0  0  0  0
   -0.7622   -0.5709    0.0000 C   0  0  0  0  0  0  0  0  0  0  0  0
    0.6488   -0.0619    0.0000 C   0  0  0  0  0  0  0  0  0  0  0  0
    0.9135    1.4146    0.0000 C   0  0  0  0  0  0  0  0  0  0  0  0
    2.3245    1.9235    0.0000 C   0  0  0  0  0  0  0  0  0  0  0  0
    3.4708    0.9560    0.0000 C   0  0  0  0  0  0  0  0  0  0  0  0
    3.2061   -0.5204    0.0000 C   0  0  0  0  0  0  0  0  0  0  0  0
    4.3524   -1.4879    0.0000 C   0  0  0  0  0  0  0  0  0  0  0  0
    1.7951   -1.0294    0.0000 C   0  0  0  0  0  0  0  0  0  0  0  0
   -1.9085    0.3966    0.0000 C   0  0  0  0  0  0  0  0  0  0  0  0
   -1.6438    1.8731    0.0000 O   0  0  0  0  0  0  0  0  0  0  0  0
   -3.3195   -0.1124    0.0000 C   0  0  0  0  0  0  0  0  0  0  0  0
   -3.5842   -1.5888    0.0000 O   0  0  0  0  0  0  0  0  0  0  0  0
   -4.4658    0.8551    0.0000 O   0  0  0  0  0  0  0  0  0  0  0  0
  2  1  1  1
  2  3  1  0
  3  4  2  0
  4  5  1  0
  5  6  2  0
  6  7  1  0
  7  8  1  0
  7  9  2  0
  2 10  1  0
 10 11  1  6
 10 12  1  0
 12 13  2  0
 12 14  1  0
  9  3  1  0
M  END
>  <rName>  (1999) 
bAla_2ROH_3RPh_3Me

>  <PQ_SYMBOL>  (1999) 
bAla_2ROH_3RPh_3Me

>  <FULL_NAME>  (1999) 
(2R,3R)-3-amino-2-hydroxy-3-(m-tolyl)propanoic acid

>  <IUPAC_CONDENSED>  (1999) 
bAla(2R-OH,3R-Ph(3-Me))

>  <IUPAC>  (1999) 
(2R,3R)-3-amino-2-hydroxy-3-(3-methylphenyl)propanoic acid

>  <TYPE>  (1999) 
Backbone

>  <CLASS>  (1999) 
beta

>  <ANALOG>  (1999) 
X

>  <MOL_WT>  (1999) 
195.218

>  <LOGP>  (1999) 
0.44032000000000004

>  <TPSA>  (1999) 
83.55

>  <POPULARITY>  (1999) 
3.8

>  <PROTECTED>  (1999) 
TRUE

>  <SMILES>  (1999) 
N[C@H](c1(cccc(C)c1))[C@@H](O)C(=O)O

>  <INCHIKEY>  (1999) 
ALZYDSFTANAOHF-RKDXNWHRSA-N

$$$$
Lys_biotinyl
     RDKit          2D

 33 34  0  0  0  0  0  0  0  0999 V2000
  -13.0776    2.2192    0.0000 N   0  0  0  0  0  0  0  0  0  0  0  0
  -13.1926    0.7236    0.0000 C   0  0  0  0  0  0  0  0  0  0  0  0
  -11.9548   -0.1238    0.0000 C   0  0  0  0  0  0  0  0  0  0  0  0
  -10.6021    0.5245    0.0000 C   0  0  0  0  0  0  0  0  0  0  0  0
   -9.3644   -0.3229    0.0000 C   0  0  0  0  0  0  0  0  0  0  0  0
   -8.0117    0.3254    0.0000 C   0  0  0  0  0  0  0  0  0  0  0  0
   -6.7740   -0.5220    0.0000 N   0  0  0  0  0  0  0  0  0  0  0  0
   -5.4213    0.1263    0.0000 C   0  0  0  0  0  0  0  0  0  0  0  0
   -5.3063    1.6219    0.0000 O   0  0  0  0  0  0  0  0  0  0  0  0
   -4.1835   -0.7211    0.0000 C   0  0  0  0  0  0  0  0  0  0  0  0
   -2.8308   -0.0728    0.0000 C   0  0  0  0  0  0  0  0  0  0  0  0
   -1.5931   -0.9202    0.0000 C   0  0  0  0  0  0  0  0  0  0  0  0
   -0.2404   -0.2719    0.0000 C   0  0  0  0  0  0  0  0  0  0  0  0
    0.9974   -1.1192    0.0000 C   0  0  0  0  0  0  0  0  0  0  0  0
    2.3500   -0.4710    0.0000 N   0  0  0  0  0  0  0  0  0  0  0  0
    3.5878   -1.3183    0.0000 C   0  0  0  0  0  0  0  0  0  0  0  0
    3.4728   -2.8139    0.0000 O   0  0  0  0  0  0  0  0  0  0  0  0
    4.9405   -0.6701    0.0000 C   0  0  0  0  0  0  0  0  0  0  0  0
    6.1782   -1.5174    0.0000 C   0  0  0  0  0  0  0  0  0  0  0  0
    7.5309   -0.8692    0.0000 C   0  0  0  0  0  0  0  0  0  0  0  0
    8.7687   -1.7165    0.0000 C   0  0  0  0  0  0  0  0  0  0  0  0
   10.1214   -1.0683    0.0000 C   0  0  0  0  0  0  0  0  0  0  0  0
   11.4409   -1.7816    0.0000 S   0  0  0  0  0  0  0  0  0  0  0  0
   12.5271   -0.7471    0.0000 C   0  0  0  0  0  0  0  0  0  0  0  0
   11.8788    0.6056    0.0000 C   0  0  0  0  0  0  0  0  0  0  0  0
   12.1495    2.0810    0.0000 N   0  0  0  0  0  0  0  0  0  0  0  0
   10.8299    2.7943    0.0000 C   0  0  0  0  0  0  0  0  0  0  0  0
   10.6314    4.2811    0.0000 O   0  0  0  0  0  0  0  0  0  0  0  0
    9.7438    1.7598    0.0000 N   0  0  0  0  0  0  0  0  0  0  0  0
   10.3920    0.4071    0.0000 C   0  0  0  0  0  0  0  0  0  0  0  0
  -14.5453    0.0753    0.0000 C   0  0  0  0  0  0  0  0  0  0  0  0
  -14.6602   -1.4203    0.0000 O   0  0  0  0  0  0  0  0  0  0  0  0
  -15.7830    0.9227    0.0000 O   0  0  0  0  0  0  0  0  0  0  0  0
  2  1  1  1
  2  3  1  0
  3  4  1  0
  4  5  1  0
  5  6  1  0
  6  7  1  0
  7  8  1  0
  8  9  2  0
  8 10  1  0
 10 11  1  0
 11 12  1  0
 12 13  1  0
 13 14  1  0
 14 15  1  0
 15 16  1  0
 16 17  2  0
 16 18  1  0
 18 19  1  0
 19 20  1  0
 20 21  1  0
 22 21  1  1
 22 23  1  0
 23 24  1  0
 25 24  1  6
 25 26  1  0
 26 27  1  0
 27 28  2  0
 27 29  1  0
 30 29  1  6
  2 31  1  0
 31 32  2  0
 31 33  1  0
 30 22  1  0
 30 25  1  0
M  END
>  <rName>  (2000) 
Lys_biotinyl

>  <PQ_SYMBOL>  (2000) 
Lys_biotinyl

>  <FULL_NAME>  (2000) 
N6-(6-(5-((3aR,4S,6aS)-2-oxohexahydro-1H-thieno[3,4-d]imidazol-4-yl)pentanamido)hexanoyl)-L-lysine

>  <IUPAC_CONDENSED>  (2000) 
Lys(biotinyl)

>  <IUPAC>  (2000) 
(2S)-2-amino-6-(5-(4-((1R,2S,5S)-7-oxo-3-thia-6,8-diazabicyclo[3.3.0]octan-2-yl)butylcarbonylamino)pentylcarbonylamino)hexanoic acid

>  <TYPE>  (2000) 
Backbone

>  <CLASS>  (2000) 
alpha

>  <ANALOG>  (2000) 
Arg

>  <MOL_WT>  (2000) 
485.6510000000002

>  <LOGP>  (2000) 
1.0872000000000024

>  <TPSA>  (2000) 
162.64999999999998

>  <POPULARITY>  (2000) 
3

>  <PROTECTED>  (2000) 
TRUE

>  <SMILES>  (2000) 
N[C@@H](CCCCNC(=O)CCCCCNC(=O)CCCC[C@@H]1SC[C@H]2NC(=O)N[C@@H]12)C(=O)O

>  <INCHIKEY>  (2000) 
KNQOLBXPUROEDZ-PFRQMTDMSA-N

$$$$
Orn_pyrazinoyl
     RDKit          2D

 17 17  0  0  0  0  0  0  0  0999 V2000
    0.7691    0.0147    0.0000 N   0  0  0  0  0  0  0  0  0  0  0  0
    1.9904   -0.8561    0.0000 C   0  0  0  0  0  0  0  0  0  0  0  0
    1.8469   -2.3493    0.0000 O   0  0  0  0  0  0  0  0  0  0  0  0
    3.3552   -0.2339    0.0000 C   0  0  0  0  0  0  0  0  0  0  0  0
    3.4988    1.2593    0.0000 C   0  0  0  0  0  0  0  0  0  0  0  0
    4.8636    1.8815    0.0000 N   0  0  0  0  0  0  0  0  0  0  0  0
    6.0849    1.0107    0.0000 C   0  0  0  0  0  0  0  0  0  0  0  0
    5.9414   -0.4824    0.0000 C   0  0  0  0  0  0  0  0  0  0  0  0
    4.5766   -1.1047    0.0000 N   0  0  0  0  0  0  0  0  0  0  0  0
   -0.5958   -0.6075    0.0000 C   0  0  0  0  0  0  0  0  0  0  0  0
   -1.8171    0.2633    0.0000 C   0  0  0  0  0  0  0  0  0  0  0  0
   -3.1819   -0.3590    0.0000 C   0  0  0  0  0  0  0  0  0  0  0  0
   -4.4032    0.5119    0.0000 C   0  0  0  0  0  0  0  0  0  0  0  0
   -4.2597    2.0050    0.0000 N   0  0  0  0  0  0  0  0  0  0  0  0
   -5.7681   -0.1104    0.0000 C   0  0  0  0  0  0  0  0  0  0  0  0
   -5.9116   -1.6035    0.0000 O   0  0  0  0  0  0  0  0  0  0  0  0
   -6.9894    0.7605    0.0000 O   0  0  0  0  0  0  0  0  0  0  0  0
  1  2  1  0
  2  3  2  0
  2  4  1  0
  4  5  1  0
  5  6  2  0
  6  7  1  0
  7  8  2  0
  8  9  1  0
  1 10  1  0
 10 11  1  0
 11 12  1  0
 12 13  1  0
 13 14  1  1
 13 15  1  0
 15 16  2  0
 15 17  1  0
  9  4  2  0
M  END
>  <rName>  (2001) 
Orn_pyrazinoyl

>  <PQ_SYMBOL>  (2001) 
Orn_pyrazinoyl

>  <FULL_NAME>  (2001) 
(S)-2-amino-5-(pyrazine-2-carboxamido)pentanoic acid

>  <IUPAC_CONDENSED>  (2001) 
Orn(pyrazinoyl)

>  <IUPAC>  (2001) 
(2S)-2-amino-5-(pyrazin-2-ylcarbonylamino)pentanoic acid

>  <TYPE>  (2001) 
Backbone

>  <CLASS>  (2001) 
delta

>  <ANALOG>  (2001) 
Lys

>  <MOL_WT>  (2001) 
238.24699999999996

>  <LOGP>  (2001) 
-0.6014999999999993

>  <TPSA>  (2001) 
118.2

>  <POPULARITY>  (2001) 
5.1

>  <PROTECTED>  (2001) 
TRUE

>  <SMILES>  (2001) 
N(C(=O)c1(cnccn1))CCC[C@H](N)C(=O)O

>  <INCHIKEY>  (2001) 
GJGIGJGNECGMMN-ZETCQYMHSA-N

$$$$
aMeGaba_3SOH
     RDKit          2D

  9  8  0  0  0  0  0  0  0  0999 V2000
    2.2062   -1.7302    0.0000 N   0  0  0  0  0  0  0  0  0  0  0  0
    1.9487   -0.2525    0.0000 C   0  0  0  0  0  0  0  0  0  0  0  0
    3.0997    0.7094    0.0000 C   0  0  0  0  0  0  0  0  0  0  0  0
    0.5402    0.2633    0.0000 C   0  0  0  0  0  0  0  0  0  0  0  0
    0.2826    1.7410    0.0000 O   0  0  0  0  0  0  0  0  0  0  0  0
   -0.6108   -0.6986    0.0000 C   0  0  0  0  0  0  0  0  0  0  0  0
   -2.0193   -0.1828    0.0000 C   0  0  0  0  0  0  0  0  0  0  0  0
   -2.2769    1.2950    0.0000 O   0  0  0  0  0  0  0  0  0  0  0  0
   -3.1703   -1.1447    0.0000 O   0  0  0  0  0  0  0  0  0  0  0  0
  1  2  1  0
  2  3  1  6
  2  4  1  0
  4  5  1  6
  4  6  1  0
  6  7  1  0
  7  8  2  0
  7  9  1  0
M  END
>  <rName>  (2002) 
aMeGaba_3SOH

>  <PQ_SYMBOL>  (2002) 
aMeGaba_3SOH

>  <FULL_NAME>  (2002) 
(3S,4S)-4-amino-3-hydroxypentanoic acid

>  <IUPAC_CONDENSED>  (2002) 
aMeGaba(3S-OH)

>  <IUPAC>  (2002) 
(3S,4S)-4-amino-3-hydroxypentanoic acid

>  <TYPE>  (2002) 
Backbone

>  <CLASS>  (2002) 
gamma

>  <ANALOG>  (2002) 
Ala

>  <MOL_WT>  (2002) 
133.147

>  <LOGP>  (2002) 
-0.8308000000000006

>  <TPSA>  (2002) 
83.55

>  <POPULARITY>  (2002) 
11

>  <PROTECTED>  (2002) 
TRUE

>  <SMILES>  (2002) 
N[C@@H](C)[C@@H](O)CC(=O)O

>  <INCHIKEY>  (2002) 
KYYLCNHXZCPNBW-IMJSIDKUSA-N

$$$$
Inp_4Ph
     RDKit          2D

 15 16  0  0  0  0  0  0  0  0999 V2000
    3.4320   -1.2773    0.0000 N   0  0  0  0  0  0  0  0  0  0  0  0
    2.1532   -2.0613    0.0000 C   0  0  0  0  0  0  0  0  0  0  0  0
    0.8348   -1.3459    0.0000 C   0  0  0  0  0  0  0  0  0  0  0  0
    0.7952    0.1536    0.0000 C   0  0  0  0  0  0  0  0  0  0  0  0
    2.0740    0.9376    0.0000 C   0  0  0  0  0  0  0  0  0  0  0  0
    3.3924    0.2222    0.0000 C   0  0  0  0  0  0  0  0  0  0  0  0
   -0.6746   -0.1458    0.0000 C   0  0  0  0  0  0  0  0  0  0  0  0
   -1.6688    0.9774    0.0000 C   0  0  0  0  0  0  0  0  0  0  0  0
   -3.1386    0.6780    0.0000 C   0  0  0  0  0  0  0  0  0  0  0  0
   -3.6143   -0.7446    0.0000 C   0  0  0  0  0  0  0  0  0  0  0  0
   -2.6201   -1.8678    0.0000 C   0  0  0  0  0  0  0  0  0  0  0  0
   -1.1503   -1.5684    0.0000 C   0  0  0  0  0  0  0  0  0  0  0  0
    0.2451    1.5491    0.0000 C   0  0  0  0  0  0  0  0  0  0  0  0
   -1.2385    1.7704    0.0000 O   0  0  0  0  0  0  0  0  0  0  0  0
    1.1786    2.7232    0.0000 O   0  0  0  0  0  0  0  0  0  0  0  0
  1  2  1  0
  2  3  1  0
  3  4  1  0
  4  5  1  0
  5  6  1  0
  4  7  1  0
  7  8  2  0
  8  9  1  0
  9 10  2  0
 10 11  1  0
 11 12  2  0
  4 13  1  0
 13 14  2  0
 13 15  1  0
  6  1  1  0
 12  7  1  0
M  END
>  <rName>  (2003) 
Inp_4Ph

>  <PQ_SYMBOL>  (2003) 
Inp_4Ph

>  <FULL_NAME>  (2003) 
4-phenylpiperidine-4-carboxylic acid

>  <IUPAC_CONDENSED>  (2003) 
Inp(4-Ph)

>  <IUPAC>  (2003) 
4-phenylpiperidine-4-carboxylic acid

>  <TYPE>  (2003) 
Backbone

>  <CLASS>  (2003) 
gamma

>  <ANALOG>  (2003) 
Pro

>  <MOL_WT>  (2003) 
205.257

>  <LOGP>  (2003) 
1.3924

>  <TPSA>  (2003) 
49.33

>  <POPULARITY>  (2003) 
14.5

>  <PROTECTED>  (2003) 
TRUE

>  <SMILES>  (2003) 
N1CCC(CC1)(c2(ccccc2))C(=O)O

>  <INCHIKEY>  (2003) 
DZZGGKPKWGPNJA-UHFFFAOYSA-N

$$$$
Tyr_35diI_Ph_35diI_4OH
     RDKit          2D

 24 25  0  0  0  0  0  0  0  0999 V2000
   -5.0637    1.3649    0.0000 N   0  0  0  0  0  0  0  0  0  0  0  0
   -5.1617   -0.1319    0.0000 C   0  0  0  0  0  0  0  0  0  0  0  0
   -3.9144   -0.9652    0.0000 C   0  0  0  0  0  0  0  0  0  0  0  0
   -2.5691   -0.3016    0.0000 C   0  0  0  0  0  0  0  0  0  0  0  0
   -2.4712    1.1952    0.0000 C   0  0  0  0  0  0  0  0  0  0  0  0
   -1.1259    1.8588    0.0000 C   0  0  0  0  0  0  0  0  0  0  0  0
   -1.0280    3.3555    0.0000 I   0  0  0  0  0  0  0  0  0  0  0  0
    0.1214    1.0255    0.0000 C   0  0  0  0  0  0  0  0  0  0  0  0
    1.4666    1.6891    0.0000 O   0  0  0  0  0  0  0  0  0  0  0  0
    2.7139    0.8558    0.0000 C   0  0  0  0  0  0  0  0  0  0  0  0
    2.6159   -0.6410    0.0000 C   0  0  0  0  0  0  0  0  0  0  0  0
    3.8632   -1.4742    0.0000 C   0  0  0  0  0  0  0  0  0  0  0  0
    3.7652   -2.9710    0.0000 I   0  0  0  0  0  0  0  0  0  0  0  0
    5.2085   -0.8106    0.0000 C   0  0  0  0  0  0  0  0  0  0  0  0
    6.4557   -1.6439    0.0000 O   0  0  0  0  0  0  0  0  0  0  0  0
    5.3064    0.6862    0.0000 C   0  0  0  0  0  0  0  0  0  0  0  0
    6.6517    1.3497    0.0000 I   0  0  0  0  0  0  0  0  0  0  0  0
    4.0591    1.5194    0.0000 C   0  0  0  0  0  0  0  0  0  0  0  0
    0.0234   -0.4713    0.0000 C   0  0  0  0  0  0  0  0  0  0  0  0
    1.2707   -1.3045    0.0000 I   0  0  0  0  0  0  0  0  0  0  0  0
   -1.3218   -1.1348    0.0000 C   0  0  0  0  0  0  0  0  0  0  0  0
   -6.5069   -0.7955    0.0000 C   0  0  0  0  0  0  0  0  0  0  0  0
   -6.6049   -2.2923    0.0000 O   0  0  0  0  0  0  0  0  0  0  0  0
   -7.7542    0.0377    0.0000 O   0  0  0  0  0  0  0  0  0  0  0  0
  2  1  1  1
  2  3  1  0
  3  4  1  0
  4  5  2  0
  5  6  1  0
  6  7  1  0
  6  8  2  0
  8  9  1  0
  9 10  1  0
 10 11  2  0
 11 12  1  0
 12 13  1  0
 12 14  2  0
 14 15  1  0
 14 16  1  0
 16 17  1  0
 16 18  2  0
  8 19  1  0
 19 20  1  0
 19 21  2  0
  2 22  1  0
 22 23  2  0
 22 24  1  0
 18 10  1  0
 21  4  1  0
M  END
>  <rName>  (2004) 
Tyr_35diI_Ph_35diI_4OH

>  <PQ_SYMBOL>  (2004) 
Tyr_35diI_Ph_35diI_4OH

>  <FULL_NAME>  (2004) 
(S)-2-amino-3-(4-(4-hydroxy-3,5-diiodophenoxy)-3,5-diiodophenyl)propanoic acid

>  <IUPAC_CONDENSED>  (2004) 
Tyr(3,5-diI,Ph(3,5-diI,4-OH))

>  <IUPAC>  (2004) 
(2S)-2-amino-3-(4-((4-hydroxy-3,5-diiodophenyl)oxy)-3,5-diiodophenyl)propanoic acid

>  <TYPE>  (2004) 
Backbone

>  <CLASS>  (2004) 
alpha

>  <ANALOG>  (2004) 
Tyr

>  <MOL_WT>  (2004) 
776.8720000000001

>  <LOGP>  (2004) 
4.5573000000000015

>  <TPSA>  (2004) 
92.78000000000002

>  <POPULARITY>  (2004) 
6

>  <PROTECTED>  (2004) 
TRUE

>  <SMILES>  (2004) 
N[C@@H](Cc2(cc(I)c(Oc1(cc(I)c(O)c(I)c1))c(I)c2))C(=O)O

>  <INCHIKEY>  (2004) 
XUIIKFGFIJCVMT-LBPRGKRZSA-N

$$$$
Gly_cHept
     RDKit          2D

 12 12  0  0  0  0  0  0  0  0999 V2000
   -1.9165   -2.0857    0.0000 N   0  0  0  0  0  0  0  0  0  0  0  0
   -1.4640   -0.6556    0.0000 C   0  0  0  0  0  0  0  0  0  0  0  0
    0.0008   -0.3324    0.0000 C   0  0  0  0  0  0  0  0  0  0  0  0
    0.9275   -1.5119    0.0000 C   0  0  0  0  0  0  0  0  0  0  0  0
    2.4275   -1.5227    0.0000 C   0  0  0  0  0  0  0  0  0  0  0  0
    3.3712   -0.3568    0.0000 C   0  0  0  0  0  0  0  0  0  0  0  0
    3.0480    1.1080    0.0000 C   0  0  0  0  0  0  0  0  0  0  0  0
    1.7013    1.7686    0.0000 C   0  0  0  0  0  0  0  0  0  0  0  0
    0.3452    1.1275    0.0000 C   0  0  0  0  0  0  0  0  0  0  0  0
   -2.4762    0.4513    0.0000 C   0  0  0  0  0  0  0  0  0  0  0  0
   -2.0238    1.8815    0.0000 O   0  0  0  0  0  0  0  0  0  0  0  0
   -3.9410    0.1282    0.0000 O   0  0  0  0  0  0  0  0  0  0  0  0
  2  1  1  6
  2  3  1  0
  3  4  1  0
  4  5  1  0
  5  6  1  0
  6  7  1  0
  7  8  1  0
  8  9  1  0
  2 10  1  0
 10 11  2  0
 10 12  1  0
  9  3  1  0
M  END
>  <rName>  (2005) 
Gly_cHept

>  <PQ_SYMBOL>  (2005) 
Gly_cHept

>  <FULL_NAME>  (2005) 
(S)-2-amino-2-cycloheptylacetic acid

>  <IUPAC_CONDENSED>  (2005) 
Gly(cHept)

>  <IUPAC>  (2005) 
(2S)-2-amino-2-cycloheptylacetic acid

>  <TYPE>  (2005) 
Backbone

>  <CLASS>  (2005) 
alpha

>  <ANALOG>  (2005) 
X

>  <MOL_WT>  (2005) 
171.24

>  <LOGP>  (2005) 
1.3687

>  <TPSA>  (2005) 
63.32000000000001

>  <POPULARITY>  (2005) 
5.6

>  <PROTECTED>  (2005) 
TRUE

>  <SMILES>  (2005) 
N[C@@H](C1(CCCCCC1))C(=O)O

>  <INCHIKEY>  (2005) 
GMLQOIMQMLOTNY-QMMMGPOBSA-N

$$$$
4-oxa-66-diMe-Pip
     RDKit          2D

 11 11  0  0  0  0  0  0  0  0999 V2000
   -0.2771   -1.2990    0.0000 N   0  0  0  0  0  0  0  0  0  0  0  0
   -1.0271    0.0000    0.0000 C   0  0  0  0  0  0  0  0  0  0  0  0
   -0.2771    1.2990    0.0000 C   0  0  0  0  0  0  0  0  0  0  0  0
    1.2229    1.2990    0.0000 O   0  0  0  0  0  0  0  0  0  0  0  0
    1.9729    0.0000    0.0000 C   0  0  0  0  0  0  0  0  0  0  0  0
    3.1220    0.9642    0.0000 C   0  0  0  0  0  0  0  0  0  0  0  0
    3.1220   -0.9642    0.0000 C   0  0  0  0  0  0  0  0  0  0  0  0
    1.2229   -1.2990    0.0000 C   0  0  0  0  0  0  0  0  0  0  0  0
   -2.5271   -0.0000    0.0000 C   0  0  0  0  0  0  0  0  0  0  0  0
   -3.2771   -1.2990    0.0000 O   0  0  0  0  0  0  0  0  0  0  0  0
   -3.2771    1.2990    0.0000 O   0  0  0  0  0  0  0  0  0  0  0  0
  1  2  1  0
  2  3  1  0
  3  4  1  0
  4  5  1  0
  5  6  1  0
  5  7  1  0
  5  8  1  0
  2  9  1  6
  9 10  2  0
  9 11  1  0
  8  1  1  0
M  END
>  <rName>  (2006) 
4-oxa-66-diMe-Pip

>  <PQ_SYMBOL>  (2006) 
4-oxa-66-diMe-Pip

>  <FULL_NAME>  (2006) 
(S)-6,6-dimethylmorpholine-3-carboxylic acid

>  <IUPAC_CONDENSED>  (2006) 
4-oxa-6,6-diMe-Pip

>  <IUPAC>  (2006) 
(3S)-6,6-dimethylmorpholine-3-carboxylic acid

>  <TYPE>  (2006) 
Backbone

>  <CLASS>  (2006) 
alpha

>  <ANALOG>  (2006) 
Pro

>  <MOL_WT>  (2006) 
159.185

>  <LOGP>  (2006) 
-0.16200000000000064

>  <TPSA>  (2006) 
58.56

>  <POPULARITY>  (2006) 
4

>  <PROTECTED>  (2006) 
TRUE

>  <SMILES>  (2006) 
N1[C@@H](COC(C)(C)C1)C(=O)O

>  <INCHIKEY>  (2006) 
GNGXTWQIBWAVCJ-YFKPBYRVSA-N

$$$$
D-Ser_EtOEtOEtN3
     RDKit          2D

 18 17  0  0  0  0  0  0  0  0999 V2000
   -6.2387   -1.9261    0.0000 N   0  0  0  0  0  0  0  0  0  0  0  0
   -6.2710   -0.4265    0.0000 C   0  0  0  0  0  0  0  0  0  0  0  0
   -4.9883    0.3513    0.0000 C   0  0  0  0  0  0  0  0  0  0  0  0
   -3.6735   -0.3707    0.0000 O   0  0  0  0  0  0  0  0  0  0  0  0
   -2.3909    0.4071    0.0000 C   0  0  0  0  0  0  0  0  0  0  0  0
   -1.0760   -0.3149    0.0000 C   0  0  0  0  0  0  0  0  0  0  0  0
    0.2066    0.4629    0.0000 O   0  0  0  0  0  0  0  0  0  0  0  0
    1.5215   -0.2590    0.0000 C   0  0  0  0  0  0  0  0  0  0  0  0
    2.8041    0.5187    0.0000 C   0  0  0  0  0  0  0  0  0  0  0  0
    4.1189   -0.2032    0.0000 O   0  0  0  0  0  0  0  0  0  0  0  0
    5.4016    0.5745    0.0000 C   0  0  0  0  0  0  0  0  0  0  0  0
    6.7164   -0.1474    0.0000 C   0  0  0  0  0  0  0  0  0  0  0  0
    7.9990    0.6303    0.0000 N   0  0  0  0  0  0  0  0  0  0  0  0
    9.3139   -0.0916    0.0000 N   0  0  0  0  0  0  0  0  0  0  0  0
   10.6287   -0.8135    0.0000 N   0  0  0  0  0  0  0  0  0  0  0  0
   -7.5858    0.2955    0.0000 C   0  0  0  0  0  0  0  0  0  0  0  0
   -7.6180    1.7951    0.0000 O   0  0  0  0  0  0  0  0  0  0  0  0
   -8.8684   -0.4823    0.0000 O   0  0  0  0  0  0  0  0  0  0  0  0
  2  1  1  1
  2  3  1  0
  3  4  1  0
  4  5  1  0
  5  6  1  0
  6  7  1  0
  7  8  1  0
  8  9  1  0
  9 10  1  0
 10 11  1  0
 11 12  1  0
 12 13  1  0
 13 14  2  0
 14 15  2  0
  2 16  1  0
 16 17  2  0
 16 18  1  0
M  CHG  2  14   1  15  -1
M  END
>  <rName>  (2007) 
D-Ser_EtOEtOEtN3

>  <PQ_SYMBOL>  (2007) 
D-Ser_EtOEtOEtN3

>  <FULL_NAME>  (2007) 
O-(2-(2-(2-azidoethoxy)ethoxy)ethyl)-D-serine

>  <IUPAC_CONDENSED>  (2007) 
D-Ser(EtOEtOEtN3)

>  <IUPAC>  (2007) 
(2R)-2-amino-3-((2-((2-((2-azidoethyl)oxy)ethyl)oxy)ethyl)oxy)propanoic acid

>  <TYPE>  (2007) 
Backbone

>  <CLASS>  (2007) 
alpha

>  <ANALOG>  (2007) 
Ser

>  <MOL_WT>  (2007) 
262.26599999999996

>  <LOGP>  (2007) 
-0.2416000000000001

>  <TPSA>  (2007) 
139.77

>  <POPULARITY>  (2007) 
2.7

>  <PROTECTED>  (2007) 
TRUE

>  <SMILES>  (2007) 
N[C@H](COCCOCCOCCN=[N+]=[N-])C(=O)O

>  <INCHIKEY>  (2007) 
BHNVZMHTTIZOKQ-MRVPVSSYSA-N

$$$$
D-Pro_4RPh
     RDKit          2D

 14 15  0  0  0  0  0  0  0  0999 V2000
   -2.0158    1.6013    0.0000 N   0  0  0  0  0  0  0  0  0  0  0  0
   -2.3178    0.1320    0.0000 C   0  0  0  0  0  0  0  0  0  0  0  0
   -1.0138   -0.6092    0.0000 C   0  0  0  0  0  0  0  0  0  0  0  0
    0.0942    0.4019    0.0000 C   0  0  0  0  0  0  0  0  0  0  0  0
   -0.5251    1.7681    0.0000 C   0  0  0  0  0  0  0  0  0  0  0  0
    1.5635    0.0999    0.0000 C   0  0  0  0  0  0  0  0  0  0  0  0
    2.0365   -1.3236    0.0000 C   0  0  0  0  0  0  0  0  0  0  0  0
    3.5058   -1.6256    0.0000 C   0  0  0  0  0  0  0  0  0  0  0  0
    4.5020   -0.5042    0.0000 C   0  0  0  0  0  0  0  0  0  0  0  0
    4.0290    0.9192    0.0000 C   0  0  0  0  0  0  0  0  0  0  0  0
    2.5597    1.2213    0.0000 C   0  0  0  0  0  0  0  0  0  0  0  0
   -3.6840   -0.4872    0.0000 C   0  0  0  0  0  0  0  0  0  0  0  0
   -3.8308   -1.9800    0.0000 O   0  0  0  0  0  0  0  0  0  0  0  0
   -4.9034    0.3863    0.0000 O   0  0  0  0  0  0  0  0  0  0  0  0
  1  2  1  0
  2  3  1  0
  3  4  1  0
  4  5  1  0
  4  6  1  1
  6  7  2  0
  7  8  1  0
  8  9  2  0
  9 10  1  0
 10 11  2  0
  2 12  1  6
 12 13  2  0
 12 14  1  0
  5  1  1  0
 11  6  1  0
M  END
>  <rName>  (2008) 
D-Pro_4RPh

>  <PQ_SYMBOL>  (2008) 
D-Pro_4RPh

>  <FULL_NAME>  (2008) 
(2R,4R)-4-phenylpyrrolidine-2-carboxylic acid

>  <IUPAC_CONDENSED>  (2008) 
D-Pro(4R-Ph)

>  <IUPAC>  (2008) 
(2R,4R)-4-phenylpyrrolidine-2-carboxylic acid

>  <TYPE>  (2008) 
Backbone

>  <CLASS>  (2008) 
alpha

>  <ANALOG>  (2008) 
Pro

>  <MOL_WT>  (2008) 
191.23

>  <LOGP>  (2008) 
1.2167

>  <TPSA>  (2008) 
49.33

>  <POPULARITY>  (2008) 
7.1

>  <PROTECTED>  (2008) 
TRUE

>  <SMILES>  (2008) 
N1[C@H](C[C@@H](C1)c2(ccccc2))C(=O)O

>  <INCHIKEY>  (2008) 
JHHOFXBPLJDHOR-VHSXEESVSA-N

$$$$
aBnPro
     RDKit          2D

 15 16  0  0  0  0  0  0  0  0999 V2000
   -2.6747   -0.7701    0.0000 N   0  0  0  0  0  0  0  0  0  0  0  0
   -1.3819   -0.0095    0.0000 C   0  0  0  0  0  0  0  0  0  0  0  0
   -0.2590   -1.0040    0.0000 C   0  0  0  0  0  0  0  0  0  0  0  0
   -0.8578   -2.3793    0.0000 C   0  0  0  0  0  0  0  0  0  0  0  0
   -2.3509   -2.2347    0.0000 C   0  0  0  0  0  0  0  0  0  0  0  0
   -0.2754    1.0033    0.0000 C   0  0  0  0  0  0  0  0  0  0  0  0
    1.1549    0.5515    0.0000 C   0  0  0  0  0  0  0  0  0  0  0  0
    2.2614    1.5642    0.0000 C   0  0  0  0  0  0  0  0  0  0  0  0
    3.6917    1.1124    0.0000 C   0  0  0  0  0  0  0  0  0  0  0  0
    4.0156   -0.3522    0.0000 C   0  0  0  0  0  0  0  0  0  0  0  0
    2.9091   -1.3650    0.0000 C   0  0  0  0  0  0  0  0  0  0  0  0
    1.4788   -0.9132    0.0000 C   0  0  0  0  0  0  0  0  0  0  0  0
   -2.2734    1.1968    0.0000 C   0  0  0  0  0  0  0  0  0  0  0  0
   -1.6746    2.5720    0.0000 O   0  0  0  0  0  0  0  0  0  0  0  0
   -3.7639    1.0278    0.0000 O   0  0  0  0  0  0  0  0  0  0  0  0
  1  2  1  0
  2  3  1  0
  3  4  1  0
  4  5  1  0
  2  6  1  6
  6  7  1  0
  7  8  2  0
  8  9  1  0
  9 10  2  0
 10 11  1  0
 11 12  2  0
  2 13  1  0
 13 14  2  0
 13 15  1  0
  5  1  1  0
 12  7  1  0
M  END
>  <rName>  (2009) 
aBnPro

>  <PQ_SYMBOL>  (2009) 
aBnPro

>  <FULL_NAME>  (2009) 
(S)-2-benzylpyrrolidine-2-carboxylic acid

>  <IUPAC_CONDENSED>  (2009) 
aBnPro

>  <IUPAC>  (2009) 
(2S)-2-benzylpyrrolidine-2-carboxylic acid

>  <TYPE>  (2009) 
Backbone

>  <CLASS>  (2009) 
alpha

>  <ANALOG>  (2009) 
Pro

>  <MOL_WT>  (2009) 
205.257

>  <LOGP>  (2009) 
1.4359

>  <TPSA>  (2009) 
49.33

>  <POPULARITY>  (2009) 
7.3

>  <PROTECTED>  (2009) 
TRUE

>  <SMILES>  (2009) 
N1[C@@](CCC1)(Cc2(ccccc2))C(=O)O

>  <INCHIKEY>  (2009) 
LIHLFIASPODZOB-LBPRGKRZSA-N

$$$$
D-Pro_3SOH
     RDKit          2D

  9  9  0  0  0  0  0  0  0  0999 V2000
   -0.6730   -1.5641    0.0000 N   0  0  0  0  0  0  0  0  0  0  0  0
    0.1113   -0.2855    0.0000 C   0  0  0  0  0  0  0  0  0  0  0  0
   -0.8624    0.8555    0.0000 C   0  0  0  0  0  0  0  0  0  0  0  0
   -0.5115    2.3139    0.0000 O   0  0  0  0  0  0  0  0  0  0  0  0
   -2.2485    0.2821    0.0000 C   0  0  0  0  0  0  0  0  0  0  0  0
   -2.1314   -1.2133    0.0000 C   0  0  0  0  0  0  0  0  0  0  0  0
    1.6067   -0.1685    0.0000 C   0  0  0  0  0  0  0  0  0  0  0  0
    2.2531    1.1851    0.0000 O   0  0  0  0  0  0  0  0  0  0  0  0
    2.4558   -1.4051    0.0000 O   0  0  0  0  0  0  0  0  0  0  0  0
  1  2  1  0
  2  3  1  0
  3  4  1  6
  3  5  1  0
  5  6  1  0
  2  7  1  6
  7  8  2  0
  7  9  1  0
  6  1  1  0
M  END
>  <rName>  (2010) 
D-Pro_3SOH

>  <PQ_SYMBOL>  (2010) 
D-Pro_3SOH

>  <FULL_NAME>  (2010) 
(2R,3S)-3-hydroxypyrrolidine-2-carboxylic acid

>  <IUPAC_CONDENSED>  (2010) 
D-Pro(3S-OH)

>  <IUPAC>  (2010) 
(2R,3S)-3-hydroxypyrrolidine-2-carboxylic acid

>  <TYPE>  (2010) 
Backbone

>  <CLASS>  (2010) 
alpha

>  <ANALOG>  (2010) 
Pro

>  <MOL_WT>  (2010) 
131.13100000000003

>  <LOGP>  (2010) 
-1.2062000000000004

>  <TPSA>  (2010) 
69.56

>  <POPULARITY>  (2010) 
7.5

>  <PROTECTED>  (2010) 
TRUE

>  <SMILES>  (2010) 
N1[C@H]([C@@H](O)CC1)C(=O)O

>  <INCHIKEY>  (2010) 
BJBUEDPLEOHJGE-IUYQGCFVSA-N

$$$$
D-22-diMe-oxazolidine-4-CO2H
     RDKit          2D

 10 10  0  0  0  0  0  0  0  0999 V2000
   -0.3816   -0.8744    0.0000 N   0  0  0  0  0  0  0  0  0  0  0  0
    0.7221    0.1414    0.0000 C   0  0  0  0  0  0  0  0  0  0  0  0
    0.0971    1.5050    0.0000 C   0  0  0  0  0  0  0  0  0  0  0  0
   -1.3929    1.3319    0.0000 O   0  0  0  0  0  0  0  0  0  0  0  0
   -1.6888   -0.1386    0.0000 C   0  0  0  0  0  0  0  0  0  0  0  0
   -2.2839   -1.5155    0.0000 C   0  0  0  0  0  0  0  0  0  0  0  0
   -3.1203    0.3093    0.0000 C   0  0  0  0  0  0  0  0  0  0  0  0
    2.1926   -0.1544    0.0000 C   0  0  0  0  0  0  0  0  0  0  0  0
    3.1841    0.9712    0.0000 O   0  0  0  0  0  0  0  0  0  0  0  0
    2.6717   -1.5759    0.0000 O   0  0  0  0  0  0  0  0  0  0  0  0
  1  2  1  0
  2  3  1  0
  3  4  1  0
  4  5  1  0
  5  6  1  0
  5  7  1  0
  2  8  1  6
  8  9  2  0
  8 10  1  0
  5  1  1  0
M  END
>  <rName>  (2011) 
D-22-diMe-oxazolidine-4-CO2H

>  <PQ_SYMBOL>  (2011) 
D-22-diMe-oxazolidine-4-CO2H

>  <FULL_NAME>  (2011) 
(R)-2,2-dimethyloxazolidine-4-carboxylic acid

>  <IUPAC_CONDENSED>  (2011) 
D-2,2-diMe-oxazolidine-4-CO2H

>  <IUPAC>  (2011) 
(4R)-2,2-dimethyl-oxazolidine-4-carboxylic acid

>  <TYPE>  (2011) 
Backbone

>  <CLASS>  (2011) 
alpha

>  <ANALOG>  (2011) 
Pro

>  <MOL_WT>  (2011) 
145.158

>  <LOGP>  (2011) 
-0.20450000000000063

>  <TPSA>  (2011) 
58.56

>  <POPULARITY>  (2011) 
4.2

>  <PROTECTED>  (2011) 
TRUE

>  <SMILES>  (2011) 
N1[C@H](COC1(C)C)C(=O)O

>  <INCHIKEY>  (2011) 
PPWHHAIRIFSDCP-SCSAIBSYSA-N

$$$$
D-Gly_cHept
     RDKit          2D

 12 12  0  0  0  0  0  0  0  0999 V2000
   -1.9165   -2.0857    0.0000 N   0  0  0  0  0  0  0  0  0  0  0  0
   -1.4640   -0.6556    0.0000 C   0  0  0  0  0  0  0  0  0  0  0  0
    0.0008   -0.3324    0.0000 C   0  0  0  0  0  0  0  0  0  0  0  0
    0.9275   -1.5119    0.0000 C   0  0  0  0  0  0  0  0  0  0  0  0
    2.4275   -1.5227    0.0000 C   0  0  0  0  0  0  0  0  0  0  0  0
    3.3712   -0.3568    0.0000 C   0  0  0  0  0  0  0  0  0  0  0  0
    3.0480    1.1080    0.0000 C   0  0  0  0  0  0  0  0  0  0  0  0
    1.7013    1.7686    0.0000 C   0  0  0  0  0  0  0  0  0  0  0  0
    0.3452    1.1275    0.0000 C   0  0  0  0  0  0  0  0  0  0  0  0
   -2.4762    0.4513    0.0000 C   0  0  0  0  0  0  0  0  0  0  0  0
   -2.0238    1.8815    0.0000 O   0  0  0  0  0  0  0  0  0  0  0  0
   -3.9410    0.1282    0.0000 O   0  0  0  0  0  0  0  0  0  0  0  0
  2  1  1  1
  2  3  1  0
  3  4  1  0
  4  5  1  0
  5  6  1  0
  6  7  1  0
  7  8  1  0
  8  9  1  0
  2 10  1  0
 10 11  2  0
 10 12  1  0
  9  3  1  0
M  END
>  <rName>  (2012) 
D-Gly_cHept

>  <PQ_SYMBOL>  (2012) 
D-Gly_cHept

>  <FULL_NAME>  (2012) 
(R)-2-amino-2-cycloheptylacetic acid

>  <IUPAC_CONDENSED>  (2012) 
D-Gly(cHept)

>  <IUPAC>  (2012) 
(2R)-2-amino-2-cycloheptylacetic acid

>  <TYPE>  (2012) 
Backbone

>  <CLASS>  (2012) 
alpha

>  <ANALOG>  (2012) 
X

>  <MOL_WT>  (2012) 
171.24

>  <LOGP>  (2012) 
1.3687

>  <TPSA>  (2012) 
63.32000000000001

>  <POPULARITY>  (2012) 
4.1

>  <PROTECTED>  (2012) 
TRUE

>  <SMILES>  (2012) 
N[C@H](C1(CCCCCC1))C(=O)O

>  <INCHIKEY>  (2012) 
GMLQOIMQMLOTNY-MRVPVSSYSA-N

$$$$
D-Pro_3SMe
     RDKit          2D

  9  9  0  0  0  0  0  0  0  0999 V2000
   -0.6730   -1.5641    0.0000 N   0  0  0  0  0  0  0  0  0  0  0  0
    0.1113   -0.2855    0.0000 C   0  0  0  0  0  0  0  0  0  0  0  0
   -0.8624    0.8555    0.0000 C   0  0  0  0  0  0  0  0  0  0  0  0
   -0.5115    2.3139    0.0000 C   0  0  0  0  0  0  0  0  0  0  0  0
   -2.2485    0.2821    0.0000 C   0  0  0  0  0  0  0  0  0  0  0  0
   -2.1314   -1.2133    0.0000 C   0  0  0  0  0  0  0  0  0  0  0  0
    1.6067   -0.1685    0.0000 C   0  0  0  0  0  0  0  0  0  0  0  0
    2.2531    1.1851    0.0000 O   0  0  0  0  0  0  0  0  0  0  0  0
    2.4558   -1.4051    0.0000 O   0  0  0  0  0  0  0  0  0  0  0  0
  1  2  1  0
  2  3  1  0
  3  4  1  6
  3  5  1  0
  5  6  1  0
  2  7  1  6
  7  8  2  0
  7  9  1  0
  6  1  1  0
M  END
>  <rName>  (2013) 
D-Pro_3SMe

>  <PQ_SYMBOL>  (2013) 
D-Pro_3SMe

>  <FULL_NAME>  (2013) 
(2R,3S)-3-methylpyrrolidine-2-carboxylic acid

>  <IUPAC_CONDENSED>  (2013) 
D-Pro(3S-Me)

>  <IUPAC>  (2013) 
(2R,3S)-3-methylpyrrolidine-2-carboxylic acid

>  <TYPE>  (2013) 
Backbone

>  <CLASS>  (2013) 
alpha

>  <ANALOG>  (2013) 
Pro

>  <MOL_WT>  (2013) 
129.15900000000002

>  <LOGP>  (2013) 
0.06899999999999967

>  <TPSA>  (2013) 
49.33

>  <POPULARITY>  (2013) 
9.9

>  <PROTECTED>  (2013) 
TRUE

>  <SMILES>  (2013) 
N1[C@H]([C@@H](C)CC1)C(=O)O

>  <INCHIKEY>  (2013) 
CNPSFBUUYIVHAP-CRCLSJGQSA-N

$$$$
Chg_Me
     RDKit          2D

 12 12  0  0  0  0  0  0  0  0999 V2000
   -2.1139   -2.0272    0.0000 N   0  0  0  0  0  0  0  0  0  0  0  0
   -1.6041   -0.6165    0.0000 C   0  0  0  0  0  0  0  0  0  0  0  0
   -0.1275   -0.3527    0.0000 C   0  0  0  0  0  0  0  0  0  0  0  0
    0.3824    1.0580    0.0000 C   0  0  0  0  0  0  0  0  0  0  0  0
    1.8590    1.3219    0.0000 C   0  0  0  0  0  0  0  0  0  0  0  0
    2.8258    0.1750    0.0000 C   0  0  0  0  0  0  0  0  0  0  0  0
    4.3024    0.4388    0.0000 C   0  0  0  0  0  0  0  0  0  0  0  0
    2.3159   -1.2357    0.0000 C   0  0  0  0  0  0  0  0  0  0  0  0
    0.8393   -1.4995    0.0000 C   0  0  0  0  0  0  0  0  0  0  0  0
   -2.5709    0.5304    0.0000 C   0  0  0  0  0  0  0  0  0  0  0  0
   -2.0610    1.9411    0.0000 O   0  0  0  0  0  0  0  0  0  0  0  0
   -4.0475    0.2665    0.0000 O   0  0  0  0  0  0  0  0  0  0  0  0
  2  1  1  6
  2  3  1  0
  3  4  1  6
  4  5  1  0
  5  6  1  0
  6  7  1  1
  6  8  1  0
  8  9  1  0
  2 10  1  0
 10 11  2  0
 10 12  1  0
  9  3  1  0
M  END
>  <rName>  (2014) 
Chg_Me

>  <PQ_SYMBOL>  (2014) 
Chg_Me

>  <FULL_NAME>  (2014) 
(S)-2-amino-2-((1r,4S)-4-methylcyclohexyl)acetic acid

>  <IUPAC_CONDENSED>  (2014) 
Chg(Me)

>  <IUPAC>  (2014) 
(2S)-2-amino-2-(trans-4-methylcyclohexyl)acetic acid

>  <TYPE>  (2014) 
Backbone

>  <CLASS>  (2014) 
alpha

>  <ANALOG>  (2014) 
X

>  <MOL_WT>  (2014) 
171.24

>  <LOGP>  (2014) 
1.2245999999999997

>  <TPSA>  (2014) 
63.32000000000001

>  <POPULARITY>  (2014) 
5.8

>  <PROTECTED>  (2014) 
TRUE

>  <SMILES>  (2014) 
N[C@@H]([C@@H]1(CC[C@@H](C)CC1))C(=O)O

>  <INCHIKEY>  (2014) 
UDUKPAOWJOMUSX-FXQIFTODSA-N

$$$$
aHyp_CHF2
     RDKit          2D

 12 12  0  0  0  0  0  0  0  0999 V2000
    1.5111   -1.6952    0.0000 N   0  0  0  0  0  0  0  0  0  0  0  0
    1.5414   -0.1955    0.0000 C   0  0  0  0  0  0  0  0  0  0  0  0
    0.1245    0.2967    0.0000 C   0  0  0  0  0  0  0  0  0  0  0  0
   -0.7815   -0.8988    0.0000 C   0  0  0  0  0  0  0  0  0  0  0  0
   -2.2812   -0.8686    0.0000 O   0  0  0  0  0  0  0  0  0  0  0  0
   -3.0049    0.4453    0.0000 C   0  0  0  0  0  0  0  0  0  0  0  0
   -4.5046    0.4756    0.0000 F   0  0  0  0  0  0  0  0  0  0  0  0
   -2.2288    1.7290    0.0000 F   0  0  0  0  0  0  0  0  0  0  0  0
    0.0755   -2.1299    0.0000 C   0  0  0  0  0  0  0  0  0  0  0  0
    2.7725    0.6615    0.0000 C   0  0  0  0  0  0  0  0  0  0  0  0
    2.6458    2.1561    0.0000 O   0  0  0  0  0  0  0  0  0  0  0  0
    4.1302    0.0239    0.0000 O   0  0  0  0  0  0  0  0  0  0  0  0
  1  2  1  0
  2  3  1  0
  3  4  1  0
  4  5  1  1
  5  6  1  0
  6  7  1  0
  6  8  1  0
  4  9  1  0
  2 10  1  1
 10 11  2  0
 10 12  1  0
  9  1  1  0
M  END
>  <rName>  (2015) 
aHyp_CHF2

>  <PQ_SYMBOL>  (2015) 
aHyp_CHF2

>  <FULL_NAME>  (2015) 
(2S,4S)-4-(difluoromethoxy)pyrrolidine-2-carboxylic acid

>  <IUPAC_CONDENSED>  (2015) 
aHyp(CHF2)

>  <IUPAC>  (2015) 
(2S,4S)-4-((difluoromethyl)oxy)pyrrolidine-2-carboxylic acid

>  <TYPE>  (2015) 
Backbone

>  <CLASS>  (2015) 
alpha

>  <ANALOG>  (2015) 
Pro

>  <MOL_WT>  (2015) 
181.138

>  <LOGP>  (2015) 
0.0406999999999999

>  <TPSA>  (2015) 
58.56

>  <POPULARITY>  (2015) 
4.5

>  <PROTECTED>  (2015) 
TRUE

>  <SMILES>  (2015) 
N1[C@@H](C[C@H](OC(F)F)C1)C(=O)O

>  <INCHIKEY>  (2015) 
YYWVQGXOBZCIRD-IMJSIDKUSA-N

$$$$
D-aallylPro
     RDKit          2D

 11 11  0  0  0  0  0  0  0  0999 V2000
   -1.5393   -0.8874    0.0000 N   0  0  0  0  0  0  0  0  0  0  0  0
   -0.4695    0.1640    0.0000 C   0  0  0  0  0  0  0  0  0  0  0  0
    0.7956    0.9700    0.0000 C   0  0  0  0  0  0  0  0  0  0  0  0
    2.1261    0.2773    0.0000 C   0  0  0  0  0  0  0  0  0  0  0  0
    3.3912    1.0833    0.0000 C   0  0  0  0  0  0  0  0  0  0  0  0
   -1.1388    1.5064    0.0000 C   0  0  0  0  0  0  0  0  0  0  0  0
   -2.6223    1.2847    0.0000 C   0  0  0  0  0  0  0  0  0  0  0  0
   -2.8699   -0.1947    0.0000 C   0  0  0  0  0  0  0  0  0  0  0  0
    0.4643   -1.0099    0.0000 C   0  0  0  0  0  0  0  0  0  0  0  0
    1.9478   -0.7882    0.0000 O   0  0  0  0  0  0  0  0  0  0  0  0
   -0.0854   -2.4055    0.0000 O   0  0  0  0  0  0  0  0  0  0  0  0
  1  2  1  0
  2  3  1  6
  3  4  1  0
  4  5  2  0
  2  6  1  0
  6  7  1  0
  7  8  1  0
  2  9  1  0
  9 10  2  0
  9 11  1  0
  8  1  1  0
M  END
>  <rName>  (2016) 
D-aallylPro

>  <PQ_SYMBOL>  (2016) 
D-aallylPro

>  <FULL_NAME>  (2016) 
(R)-2-allylpyrrolidine-2-carboxylic acid

>  <IUPAC_CONDENSED>  (2016) 
D-aallylPro

>  <IUPAC>  (2016) 
(2R)-2-(prop-2-en-1-yl)pyrrolidine-2-carboxylic acid

>  <TYPE>  (2016) 
Backbone

>  <CLASS>  (2016) 
alpha

>  <ANALOG>  (2016) 
Pro

>  <MOL_WT>  (2016) 
155.197

>  <LOGP>  (2016) 
0.7693000000000001

>  <TPSA>  (2016) 
49.33

>  <POPULARITY>  (2016) 
5.3

>  <PROTECTED>  (2016) 
TRUE

>  <SMILES>  (2016) 
N1[C@@](CC=C)(CCC1)C(=O)O

>  <INCHIKEY>  (2016) 
WRBBRKMXTLLAOB-QMMMGPOBSA-N

$$$$
D-Pip_4carbonyl
     RDKit          2D

 10 10  0  0  0  0  0  0  0  0999 V2000
   -0.2551   -1.5451    0.0000 N   0  0  0  0  0  0  0  0  0  0  0  0
   -0.6466   -0.0971    0.0000 C   0  0  0  0  0  0  0  0  0  0  0  0
    0.4117    0.9659    0.0000 C   0  0  0  0  0  0  0  0  0  0  0  0
    1.8615    0.5809    0.0000 C   0  0  0  0  0  0  0  0  0  0  0  0
    2.9197    1.6440    0.0000 O   0  0  0  0  0  0  0  0  0  0  0  0
    2.2529   -0.8671    0.0000 C   0  0  0  0  0  0  0  0  0  0  0  0
    1.1946   -1.9301    0.0000 C   0  0  0  0  0  0  0  0  0  0  0  0
   -2.0963    0.2879    0.0000 C   0  0  0  0  0  0  0  0  0  0  0  0
   -3.1546   -0.7752    0.0000 O   0  0  0  0  0  0  0  0  0  0  0  0
   -2.4878    1.7359    0.0000 O   0  0  0  0  0  0  0  0  0  0  0  0
  1  2  1  0
  2  3  1  0
  3  4  1  0
  4  5  2  0
  4  6  1  0
  6  7  1  0
  2  8  1  1
  8  9  2  0
  8 10  1  0
  7  1  1  0
M  END
>  <rName>  (2017) 
D-Pip_4carbonyl

>  <PQ_SYMBOL>  (2017) 
D-Pip_4carbonyl

>  <FULL_NAME>  (2017) 
(R)-4-oxopiperidine-2-carboxylic acid

>  <IUPAC_CONDENSED>  (2017) 
D-Pip(4-carbonyl)

>  <IUPAC>  (2017) 
(2R)-4-oxopiperidine-2-carboxylic acid

>  <TYPE>  (2017) 
Backbone

>  <CLASS>  (2017) 
alpha

>  <ANALOG>  (2017) 
Pro

>  <MOL_WT>  (2017) 
143.142

>  <LOGP>  (2017) 
-0.6079000000000006

>  <TPSA>  (2017) 
66.4

>  <POPULARITY>  (2017) 
3.8

>  <PROTECTED>  (2017) 
TRUE

>  <SMILES>  (2017) 
N1[C@H](CC(=O)CC1)C(=O)O

>  <INCHIKEY>  (2017) 
UAISREBYDOFHJY-RXMQYKEDSA-N

$$$$
morpholine-2-CO2H_S
     RDKit          2D

  9  9  0  0  0  0  0  0  0  0999 V2000
    1.9167   -1.2990    0.0000 N   0  0  0  0  0  0  0  0  0  0  0  0
    0.4167   -1.2990    0.0000 C   0  0  0  0  0  0  0  0  0  0  0  0
   -0.3333    0.0000    0.0000 C   0  0  0  0  0  0  0  0  0  0  0  0
    0.4167    1.2990    0.0000 O   0  0  0  0  0  0  0  0  0  0  0  0
    1.9167    1.2990    0.0000 C   0  0  0  0  0  0  0  0  0  0  0  0
    2.6667    0.0000    0.0000 C   0  0  0  0  0  0  0  0  0  0  0  0
   -1.8333    0.0000    0.0000 C   0  0  0  0  0  0  0  0  0  0  0  0
   -2.5833   -1.2990    0.0000 O   0  0  0  0  0  0  0  0  0  0  0  0
   -2.5833    1.2990    0.0000 O   0  0  0  0  0  0  0  0  0  0  0  0
  1  2  1  0
  2  3  1  0
  3  4  1  0
  4  5  1  0
  5  6  1  0
  3  7  1  1
  7  8  2  0
  7  9  1  0
  6  1  1  0
M  END
>  <rName>  (2018) 
morpholine-2-CO2H_S

>  <PQ_SYMBOL>  (2018) 
morpholine-2-CO2H_S

>  <FULL_NAME>  (2018) 
(S)-morpholine-2-carboxylic acid

>  <IUPAC_CONDENSED>  (2018) 
morpholine-2-CO2H(S)

>  <IUPAC>  (2018) 
(2S)-morpholine-2-carboxylic acid

>  <TYPE>  (2018) 
Backbone

>  <CLASS>  (2018) 
beta

>  <ANALOG>  (2018) 
Pro

>  <MOL_WT>  (2018) 
131.131

>  <LOGP>  (2018) 
-0.9406000000000001

>  <TPSA>  (2018) 
58.56

>  <POPULARITY>  (2018) 
8.5

>  <PROTECTED>  (2018) 
TRUE

>  <SMILES>  (2018) 
N1C[C@H](OCC1)C(=O)O

>  <INCHIKEY>  (2018) 
FYCRNRZIEVLZDO-BYPYZUCNSA-N

$$$$
Tyr_35diI_Ph_3I_4OH
     RDKit          2D

 23 24  0  0  0  0  0  0  0  0999 V2000
   -4.8595    1.3864    0.0000 N   0  0  0  0  0  0  0  0  0  0  0  0
   -5.0036   -0.1067    0.0000 C   0  0  0  0  0  0  0  0  0  0  0  0
   -3.7827   -0.9780    0.0000 C   0  0  0  0  0  0  0  0  0  0  0  0
   -2.4176   -0.3563    0.0000 C   0  0  0  0  0  0  0  0  0  0  0  0
   -2.2734    1.1368    0.0000 C   0  0  0  0  0  0  0  0  0  0  0  0
   -0.9084    1.7585    0.0000 C   0  0  0  0  0  0  0  0  0  0  0  0
   -0.7642    3.2515    0.0000 I   0  0  0  0  0  0  0  0  0  0  0  0
    0.3126    0.8871    0.0000 C   0  0  0  0  0  0  0  0  0  0  0  0
    1.6777    1.5088    0.0000 O   0  0  0  0  0  0  0  0  0  0  0  0
    2.8987    0.6375    0.0000 C   0  0  0  0  0  0  0  0  0  0  0  0
    2.7545   -0.8556    0.0000 C   0  0  0  0  0  0  0  0  0  0  0  0
    3.9755   -1.7269    0.0000 C   0  0  0  0  0  0  0  0  0  0  0  0
    5.3406   -1.1052    0.0000 C   0  0  0  0  0  0  0  0  0  0  0  0
    6.5615   -1.9766    0.0000 O   0  0  0  0  0  0  0  0  0  0  0  0
    5.4847    0.3878    0.0000 C   0  0  0  0  0  0  0  0  0  0  0  0
    6.8498    1.0095    0.0000 I   0  0  0  0  0  0  0  0  0  0  0  0
    4.2638    1.2592    0.0000 C   0  0  0  0  0  0  0  0  0  0  0  0
    0.1685   -0.6059    0.0000 C   0  0  0  0  0  0  0  0  0  0  0  0
    1.3894   -1.4773    0.0000 I   0  0  0  0  0  0  0  0  0  0  0  0
   -1.1966   -1.2277    0.0000 C   0  0  0  0  0  0  0  0  0  0  0  0
   -6.3687   -0.7284    0.0000 C   0  0  0  0  0  0  0  0  0  0  0  0
   -6.5129   -2.2214    0.0000 O   0  0  0  0  0  0  0  0  0  0  0  0
   -7.5897    0.1430    0.0000 O   0  0  0  0  0  0  0  0  0  0  0  0
  2  1  1  1
  2  3  1  0
  3  4  1  0
  4  5  2  0
  5  6  1  0
  6  7  1  0
  6  8  2  0
  8  9  1  0
  9 10  1  0
 10 11  1  0
 11 12  2  0
 12 13  1  0
 13 14  1  0
 13 15  2  0
 15 16  1  0
 15 17  1  0
  8 18  1  0
 18 19  1  0
 18 20  2  0
  2 21  1  0
 21 22  2  0
 21 23  1  0
 17 10  2  0
 20  4  1  0
M  END
>  <rName>  (2019) 
Tyr_35diI_Ph_3I_4OH

>  <PQ_SYMBOL>  (2019) 
Tyr_35diI_Ph_3I_4OH

>  <FULL_NAME>  (2019) 
(S)-2-amino-3-(4-(4-hydroxy-3-iodophenoxy)-3,5-diiodophenyl)propanoic acid

>  <IUPAC_CONDENSED>  (2019) 
Tyr(3,5-diI,Ph(3-I,4-OH))

>  <IUPAC>  (2019) 
(2S)-2-amino-3-(4-((4-hydroxy-3-iodophenyl)oxy)-3,5-diiodophenyl)propanoic acid

>  <TYPE>  (2019) 
Backbone

>  <CLASS>  (2019) 
alpha

>  <ANALOG>  (2019) 
Tyr

>  <MOL_WT>  (2019) 
650.9760000000001

>  <LOGP>  (2019) 
3.952700000000001

>  <TPSA>  (2019) 
92.78000000000002

>  <POPULARITY>  (2019) 
7

>  <PROTECTED>  (2019) 
TRUE

>  <SMILES>  (2019) 
N[C@@H](Cc2(cc(I)c(Oc1(ccc(O)c(I)c1))c(I)c2))C(=O)O

>  <INCHIKEY>  (2019) 
AUYYCJSJGJYCDS-LBPRGKRZSA-N

$$$$
Pro_5SMe
     RDKit          2D

  9  9  0  0  0  0  0  0  0  0999 V2000
   -0.6334   -0.9301    0.0000 N   0  0  0  0  0  0  0  0  0  0  0  0
    0.4598    0.0969    0.0000 C   0  0  0  0  0  0  0  0  0  0  0  0
   -0.1792    1.4541    0.0000 C   0  0  0  0  0  0  0  0  0  0  0  0
   -1.6673    1.2657    0.0000 C   0  0  0  0  0  0  0  0  0  0  0  0
   -1.9481   -0.2077    0.0000 C   0  0  0  0  0  0  0  0  0  0  0  0
   -3.3052   -0.8467    0.0000 C   0  0  0  0  0  0  0  0  0  0  0  0
    1.9333   -0.1838    0.0000 C   0  0  0  0  0  0  0  0  0  0  0  0
    2.9132    0.9519    0.0000 O   0  0  0  0  0  0  0  0  0  0  0  0
    2.4269   -1.6003    0.0000 O   0  0  0  0  0  0  0  0  0  0  0  0
  1  2  1  0
  2  3  1  0
  3  4  1  0
  4  5  1  0
  5  6  1  1
  2  7  1  1
  7  8  2  0
  7  9  1  0
  5  1  1  0
M  END
>  <rName>  (2020) 
Pro_5SMe

>  <PQ_SYMBOL>  (2020) 
Pro_5SMe

>  <FULL_NAME>  (2020) 
(2S,5S)-5-methylpyrrolidine-2-carboxylic acid

>  <IUPAC_CONDENSED>  (2020) 
Pro(5S-Me)

>  <IUPAC>  (2020) 
(2S,5S)-5-methylpyrrolidine-2-carboxylic acid

>  <TYPE>  (2020) 
Backbone

>  <CLASS>  (2020) 
alpha

>  <ANALOG>  (2020) 
Pro

>  <MOL_WT>  (2020) 
129.159

>  <LOGP>  (2020) 
0.21149999999999974

>  <TPSA>  (2020) 
49.33

>  <POPULARITY>  (2020) 
12.6

>  <PROTECTED>  (2020) 
TRUE

>  <SMILES>  (2020) 
N1[C@@H](CC[C@@H]1C)C(=O)O

>  <INCHIKEY>  (2020) 
YNSYWEFVEIFJPZ-WHFBIAKZSA-N

$$$$
D-Pro_44diF
     RDKit          2D

 10 10  0  0  0  0  0  0  0  0999 V2000
    0.0971   -1.5050    0.0000 N   0  0  0  0  0  0  0  0  0  0  0  0
    0.7221   -0.1414    0.0000 C   0  0  0  0  0  0  0  0  0  0  0  0
   -0.3816    0.8744    0.0000 C   0  0  0  0  0  0  0  0  0  0  0  0
   -1.6888    0.1386    0.0000 C   0  0  0  0  0  0  0  0  0  0  0  0
   -3.1203   -0.3093    0.0000 F   0  0  0  0  0  0  0  0  0  0  0  0
   -2.2839    1.5155    0.0000 F   0  0  0  0  0  0  0  0  0  0  0  0
   -1.3929   -1.3319    0.0000 C   0  0  0  0  0  0  0  0  0  0  0  0
    2.1926    0.1544    0.0000 C   0  0  0  0  0  0  0  0  0  0  0  0
    2.6717    1.5759    0.0000 O   0  0  0  0  0  0  0  0  0  0  0  0
    3.1841   -0.9712    0.0000 O   0  0  0  0  0  0  0  0  0  0  0  0
  1  2  1  0
  2  3  1  0
  3  4  1  0
  4  5  1  0
  4  6  1  0
  4  7  1  0
  2  8  1  6
  8  9  2  0
  8 10  1  0
  7  1  1  0
M  END
>  <rName>  (2021) 
D-Pro_44diF

>  <PQ_SYMBOL>  (2021) 
D-Pro_44diF

>  <FULL_NAME>  (2021) 
(R)-4,4-difluoropyrrolidine-2-carboxylic acid

>  <IUPAC_CONDENSED>  (2021) 
D-Pro(4,4-diF)

>  <IUPAC>  (2021) 
(2R)-4,4-difluoropyrrolidine-2-carboxylic acid

>  <TYPE>  (2021) 
Backbone

>  <CLASS>  (2021) 
alpha

>  <ANALOG>  (2021) 
Pro

>  <MOL_WT>  (2021) 
151.11200000000002

>  <LOGP>  (2021) 
0.06819999999999976

>  <TPSA>  (2021) 
49.33

>  <POPULARITY>  (2021) 
7.6

>  <PROTECTED>  (2021) 
TRUE

>  <SMILES>  (2021) 
N1[C@H](CC(F)(F)C1)C(=O)O

>  <INCHIKEY>  (2021) 
ZPBIYZHGBPBZCK-GSVOUGTGSA-N

$$$$
D-Phe_3Cl_4OMe
     RDKit          2D

 15 15  0  0  0  0  0  0  0  0999 V2000
   -2.3798    1.6931    0.0000 N   0  0  0  0  0  0  0  0  0  0  0  0
   -2.6978    0.2272    0.0000 C   0  0  0  0  0  0  0  0  0  0  0  0
   -1.5874   -0.7812    0.0000 C   0  0  0  0  0  0  0  0  0  0  0  0
   -0.1588   -0.3237    0.0000 C   0  0  0  0  0  0  0  0  0  0  0  0
    0.1592    1.1422    0.0000 C   0  0  0  0  0  0  0  0  0  0  0  0
    1.5877    1.5997    0.0000 C   0  0  0  0  0  0  0  0  0  0  0  0
    2.6982    0.5914    0.0000 C   0  0  0  0  0  0  0  0  0  0  0  0
    4.1267    1.0489    0.0000 O   0  0  0  0  0  0  0  0  0  0  0  0
    5.2372    0.0405    0.0000 C   0  0  0  0  0  0  0  0  0  0  0  0
    2.3802   -0.8745    0.0000 C   0  0  0  0  0  0  0  0  0  0  0  0
    3.4906   -1.8829    0.0000 Cl  0  0  0  0  0  0  0  0  0  0  0  0
    0.9516   -1.3321    0.0000 C   0  0  0  0  0  0  0  0  0  0  0  0
   -4.1264   -0.2303    0.0000 C   0  0  0  0  0  0  0  0  0  0  0  0
   -4.4444   -1.6962    0.0000 O   0  0  0  0  0  0  0  0  0  0  0  0
   -5.2369    0.7780    0.0000 O   0  0  0  0  0  0  0  0  0  0  0  0
  2  1  1  6
  2  3  1  0
  3  4  1  0
  4  5  1  0
  5  6  2  0
  6  7  1  0
  7  8  1  0
  8  9  1  0
  7 10  2  0
 10 11  1  0
 10 12  1  0
  2 13  1  0
 13 14  2  0
 13 15  1  0
 12  4  2  0
M  END
>  <rName>  (2022) 
D-Phe_3Cl_4OMe

>  <PQ_SYMBOL>  (2022) 
D-Phe_3Cl_4OMe

>  <FULL_NAME>  (2022) 
(R)-2-amino-3-(3-chloro-4-methoxyphenyl)propanoic acid

>  <IUPAC_CONDENSED>  (2022) 
D-Phe(3-Cl,4-OMe)

>  <IUPAC>  (2022) 
(2R)-2-amino-3-(3-chloro-4-methoxyphenyl)propanoic acid

>  <TYPE>  (2022) 
Backbone

>  <CLASS>  (2022) 
alpha

>  <ANALOG>  (2022) 
Tyr

>  <MOL_WT>  (2022) 
229.66299999999998

>  <LOGP>  (2022) 
1.303

>  <TPSA>  (2022) 
72.55

>  <POPULARITY>  (2022) 
6.4

>  <PROTECTED>  (2022) 
TRUE

>  <SMILES>  (2022) 
N[C@H](Cc1(ccc(OC)c(Cl)c1))C(=O)O

>  <INCHIKEY>  (2022) 
FVFCTFGTAWTEIF-MRVPVSSYSA-N

$$$$
NMe-D-Iva
     RDKit          2D

  9  8  0  0  0  0  0  0  0  0999 V2000
    1.7809   -0.7567    0.0000 N   0  0  0  0  0  0  0  0  0  0  0  0
    2.7701    0.3709    0.0000 C   0  0  0  0  0  0  0  0  0  0  0  0
    0.3097   -0.4638    0.0000 C   0  0  0  0  0  0  0  0  0  0  0  0
    0.0168   -1.9349    0.0000 C   0  0  0  0  0  0  0  0  0  0  0  0
    0.6027    1.0074    0.0000 C   0  0  0  0  0  0  0  0  0  0  0  0
   -0.5249    1.9966    0.0000 C   0  0  0  0  0  0  0  0  0  0  0  0
   -1.1614   -0.1708    0.0000 C   0  0  0  0  0  0  0  0  0  0  0  0
   -2.1506   -1.2984    0.0000 O   0  0  0  0  0  0  0  0  0  0  0  0
   -1.6433    1.2497    0.0000 O   0  0  0  0  0  0  0  0  0  0  0  0
  1  2  1  0
  1  3  1  0
  3  4  1  6
  3  5  1  0
  5  6  1  0
  3  7  1  0
  7  8  2  0
  7  9  1  0
M  END
>  <rName>  (2023) 
NMe-D-Iva

>  <PQ_SYMBOL>  (2023) 
NMe-D-Iva

>  <FULL_NAME>  (2023) 
(R)-2-methyl-2-(methylamino)butanoic acid

>  <IUPAC_CONDENSED>  (2023) 
Me-D-Iva

>  <IUPAC>  (2023) 
(2R)-2-methyl-2-(methylamino)butanoic acid

>  <TYPE>  (2023) 
Backbone

>  <CLASS>  (2023) 
alpha

>  <ANALOG>  (2023) 
Val

>  <MOL_WT>  (2023) 
131.175

>  <LOGP>  (2023) 
0.4591

>  <TPSA>  (2023) 
49.33

>  <POPULARITY>  (2023) 
13.6

>  <PROTECTED>  (2023) 
TRUE

>  <SMILES>  (2023) 
N(C)[C@](C)(CC)C(=O)O

>  <INCHIKEY>  (2023) 
RLSXYPXVDGQGTN-ZCFIWIBFSA-N

$$$$
Phe_2MeOH
     RDKit          2D

 14 14  0  0  0  0  0  0  0  0999 V2000
   -1.9781    1.7869    0.0000 N   0  0  0  0  0  0  0  0  0  0  0  0
   -2.0323    0.2879    0.0000 C   0  0  0  0  0  0  0  0  0  0  0  0
   -0.7612   -0.5086    0.0000 C   0  0  0  0  0  0  0  0  0  0  0  0
    0.5641    0.1940    0.0000 C   0  0  0  0  0  0  0  0  0  0  0  0
    0.6183    1.6931    0.0000 C   0  0  0  0  0  0  0  0  0  0  0  0
    1.9435    2.3957    0.0000 C   0  0  0  0  0  0  0  0  0  0  0  0
    3.2146    1.5993    0.0000 C   0  0  0  0  0  0  0  0  0  0  0  0
    3.1605    0.1002    0.0000 C   0  0  0  0  0  0  0  0  0  0  0  0
    1.8352   -0.6024    0.0000 C   0  0  0  0  0  0  0  0  0  0  0  0
    1.7811   -2.1014    0.0000 C   0  0  0  0  0  0  0  0  0  0  0  0
    3.0522   -2.8978    0.0000 O   0  0  0  0  0  0  0  0  0  0  0  0
   -3.3575   -0.4148    0.0000 C   0  0  0  0  0  0  0  0  0  0  0  0
   -3.4117   -1.9138    0.0000 O   0  0  0  0  0  0  0  0  0  0  0  0
   -4.6287    0.3817    0.0000 O   0  0  0  0  0  0  0  0  0  0  0  0
  2  1  1  1
  2  3  1  0
  3  4  1  0
  4  5  2  0
  5  6  1  0
  6  7  2  0
  7  8  1  0
  8  9  2  0
  9 10  1  0
 10 11  1  0
  2 12  1  0
 12 13  2  0
 12 14  1  0
  9  4  1  0
M  END
>  <rName>  (2024) 
Phe_2MeOH

>  <PQ_SYMBOL>  (2024) 
Phe_2MeOH

>  <FULL_NAME>  (2024) 
(S)-2-amino-3-(2-(hydroxymethyl)phenyl)propanoic acid

>  <IUPAC_CONDENSED>  (2024) 
Phe(2-MeOH)

>  <IUPAC>  (2024) 
(2S)-2-amino-3-(2-(hydroxymethyl)phenyl)propanoic acid

>  <TYPE>  (2024) 
Backbone

>  <CLASS>  (2024) 
alpha

>  <ANALOG>  (2024) 
Phe

>  <MOL_WT>  (2024) 
195.21799999999996

>  <LOGP>  (2024) 
0.13329999999999997

>  <TPSA>  (2024) 
83.55

>  <POPULARITY>  (2024) 
3.7

>  <PROTECTED>  (2024) 
TRUE

>  <SMILES>  (2024) 
N[C@@H](Cc1(ccccc1CO))C(=O)O

>  <INCHIKEY>  (2024) 
VEKGNCOFKMYVGL-VIFPVBQESA-N

$$$$
2Pal_3NO2_5Me
     RDKit          2D

 16 16  0  0  0  0  0  0  0  0999 V2000
   -2.0264    2.1084    0.0000 N   0  0  0  0  0  0  0  0  0  0  0  0
   -2.2807    0.6301    0.0000 C   0  0  0  0  0  0  0  0  0  0  0  0
   -1.1276   -0.3292    0.0000 C   0  0  0  0  0  0  0  0  0  0  0  0
    0.2798    0.1897    0.0000 C   0  0  0  0  0  0  0  0  0  0  0  0
    0.5340    1.6680    0.0000 N   0  0  0  0  0  0  0  0  0  0  0  0
    1.9414    2.1869    0.0000 C   0  0  0  0  0  0  0  0  0  0  0  0
    3.0945    1.2276    0.0000 C   0  0  0  0  0  0  0  0  0  0  0  0
    4.5019    1.7465    0.0000 C   0  0  0  0  0  0  0  0  0  0  0  0
    2.8403   -0.2507    0.0000 C   0  0  0  0  0  0  0  0  0  0  0  0
    1.4329   -0.7697    0.0000 C   0  0  0  0  0  0  0  0  0  0  0  0
    1.1786   -2.2479    0.0000 N   0  0  0  0  0  0  0  0  0  0  0  0
    2.3317   -3.2073    0.0000 O   0  0  0  0  0  0  0  0  0  0  0  0
   -0.2288   -2.7669    0.0000 O   0  0  0  0  0  0  0  0  0  0  0  0
   -3.6881    0.1112    0.0000 C   0  0  0  0  0  0  0  0  0  0  0  0
   -3.9423   -1.3671    0.0000 O   0  0  0  0  0  0  0  0  0  0  0  0
   -4.8412    1.0705    0.0000 O   0  0  0  0  0  0  0  0  0  0  0  0
  2  1  1  1
  2  3  1  0
  3  4  1  0
  4  5  1  0
  5  6  2  0
  6  7  1  0
  7  8  1  0
  7  9  2  0
  9 10  1  0
 10 11  1  0
 11 12  2  0
 11 13  1  0
  2 14  1  0
 14 15  2  0
 14 16  1  0
 10  4  2  0
M  CHG  2  11   1  13  -1
M  END
>  <rName>  (2025) 
2Pal_3NO2_5Me

>  <PQ_SYMBOL>  (2025) 
2Pal_3NO2_5Me

>  <FULL_NAME>  (2025) 
(S)-2-amino-3-(5-methyl-3-nitropyridin-2-yl)propanoic acid

>  <IUPAC_CONDENSED>  (2025) 
2Pal(3-NO2,5-Me)

>  <IUPAC>  (2025) 
(2S)-2-amino-3-(5-methyl-3-nitropyridin-2-yl)propanoic acid

>  <TYPE>  (2025) 
Backbone

>  <CLASS>  (2025) 
alpha

>  <ANALOG>  (2025) 
Phe

>  <MOL_WT>  (2025) 
225.20399999999998

>  <LOGP>  (2025) 
0.25261999999999935

>  <TPSA>  (2025) 
119.35000000000001

>  <POPULARITY>  (2025) 
2.4

>  <PROTECTED>  (2025) 
TRUE

>  <SMILES>  (2025) 
N[C@@H](Cc1(ncc(C)cc1[N+](=O)[O-]))C(=O)O

>  <INCHIKEY>  (2025) 
PSBSSKWDWIWCRM-LURJTMIESA-N

$$$$
3Pal_5Me_6Cl
     RDKit          2D

 14 14  0  0  0  0  0  0  0  0999 V2000
   -2.0094    1.6916    0.0000 N   0  0  0  0  0  0  0  0  0  0  0  0
   -2.3243    0.2250    0.0000 C   0  0  0  0  0  0  0  0  0  0  0  0
   -1.2116   -0.7809    0.0000 C   0  0  0  0  0  0  0  0  0  0  0  0
    0.2159   -0.3203    0.0000 C   0  0  0  0  0  0  0  0  0  0  0  0
    0.5308    1.1463    0.0000 C   0  0  0  0  0  0  0  0  0  0  0  0
    1.9583    1.6069    0.0000 N   0  0  0  0  0  0  0  0  0  0  0  0
    3.0710    0.6009    0.0000 C   0  0  0  0  0  0  0  0  0  0  0  0
    4.4985    1.0615    0.0000 Cl  0  0  0  0  0  0  0  0  0  0  0  0
    2.7561   -0.8657    0.0000 C   0  0  0  0  0  0  0  0  0  0  0  0
    3.8688   -1.8716    0.0000 C   0  0  0  0  0  0  0  0  0  0  0  0
    1.3286   -1.3263    0.0000 C   0  0  0  0  0  0  0  0  0  0  0  0
   -3.7518   -0.2356    0.0000 C   0  0  0  0  0  0  0  0  0  0  0  0
   -4.0666   -1.7022    0.0000 O   0  0  0  0  0  0  0  0  0  0  0  0
   -4.8644    0.7704    0.0000 O   0  0  0  0  0  0  0  0  0  0  0  0
  2  1  1  1
  2  3  1  0
  3  4  1  0
  4  5  1  0
  5  6  2  0
  6  7  1  0
  7  8  1  0
  7  9  2  0
  9 10  1  0
  9 11  1  0
  2 12  1  0
 12 13  2  0
 12 14  1  0
 11  4  2  0
M  END
>  <rName>  (2026) 
3Pal_5Me_6Cl

>  <PQ_SYMBOL>  (2026) 
3Pal_5Me_6Cl

>  <FULL_NAME>  (2026) 
(S)-2-amino-3-(6-chloro-5-methylpyridin-3-yl)propanoic acid

>  <IUPAC_CONDENSED>  (2026) 
3Pal(5-Me,6-Cl)

>  <IUPAC>  (2026) 
(2S)-2-amino-3-(6-chloro-5-methylpyridin-3-yl)propanoic acid

>  <TYPE>  (2026) 
Backbone

>  <CLASS>  (2026) 
alpha

>  <ANALOG>  (2026) 
Phe

>  <MOL_WT>  (2026) 
214.652

>  <LOGP>  (2026) 
0.9978200000000002

>  <TPSA>  (2026) 
76.21

>  <POPULARITY>  (2026) 
2.6

>  <PROTECTED>  (2026) 
TRUE

>  <SMILES>  (2026) 
N[C@@H](Cc1(cnc(Cl)c(C)c1))C(=O)O

>  <INCHIKEY>  (2026) 
XDZWZHNUKDYDIP-ZETCQYMHSA-N

$$$$
Ala_pyrazol4yl_5CF3
     RDKit          2D

 15 15  0  0  0  0  0  0  0  0999 V2000
    2.3969    1.7847    0.0000 N   0  0  0  0  0  0  0  0  0  0  0  0
    2.1963    0.2982    0.0000 C   0  0  0  0  0  0  0  0  0  0  0  0
    0.8087   -0.2714    0.0000 C   0  0  0  0  0  0  0  0  0  0  0  0
   -0.3784    0.6455    0.0000 C   0  0  0  0  0  0  0  0  0  0  0  0
   -0.3344    2.1448    0.0000 C   0  0  0  0  0  0  0  0  0  0  0  0
   -1.7467    2.6501    0.0000 N   0  0  0  0  0  0  0  0  0  0  0  0
   -2.6637    1.4630    0.0000 N   0  0  0  0  0  0  0  0  0  0  0  0
   -1.8180    0.2241    0.0000 C   0  0  0  0  0  0  0  0  0  0  0  0
   -2.3232   -1.1883    0.0000 C   0  0  0  0  0  0  0  0  0  0  0  0
   -2.8284   -2.6007    0.0000 F   0  0  0  0  0  0  0  0  0  0  0  0
   -0.9109   -1.6935    0.0000 F   0  0  0  0  0  0  0  0  0  0  0  0
   -3.7356   -0.6831    0.0000 F   0  0  0  0  0  0  0  0  0  0  0  0
    3.3834   -0.6188    0.0000 C   0  0  0  0  0  0  0  0  0  0  0  0
    3.1829   -2.1053    0.0000 O   0  0  0  0  0  0  0  0  0  0  0  0
    4.7711   -0.0492    0.0000 O   0  0  0  0  0  0  0  0  0  0  0  0
  2  1  1  6
  2  3  1  0
  3  4  1  0
  4  5  1  0
  5  6  2  0
  6  7  1  0
  7  8  1  0
  8  9  1  0
  9 10  1  0
  9 11  1  0
  9 12  1  0
  2 13  1  0
 13 14  2  0
 13 15  1  0
  8  4  2  0
M  END
>  <rName>  (2027) 
Ala_pyrazol4yl_5CF3

>  <PQ_SYMBOL>  (2027) 
Ala_pyrazol4yl_5CF3

>  <FULL_NAME>  (2027) 
(S)-2-amino-3-(5-(trifluoromethyl)-1H-pyrazol-4-yl)propanoic acid

>  <IUPAC_CONDENSED>  (2027) 
Ala(pyrazol-4-yl(5-CF3))

>  <IUPAC>  (2027) 
(2S)-2-amino-3-(5-(trifluoromethyl)-1H-pyrazol-4-yl)propanoic acid

>  <TYPE>  (2027) 
Backbone

>  <CLASS>  (2027) 
alpha

>  <ANALOG>  (2027) 
Phe

>  <MOL_WT>  (2027) 
223.15399999999997

>  <LOGP>  (2027) 
0.38290000000000024

>  <TPSA>  (2027) 
92

>  <POPULARITY>  (2027) 
2.6

>  <PROTECTED>  (2027) 
TRUE

>  <SMILES>  (2027) 
N[C@@H](Cc1(cn[nH]c1C(F)(F)F))C(=O)O

>  <INCHIKEY>  (2027) 
OIIQGXBAVJMXLC-BYPYZUCNSA-N

$$$$
Phe_2OMe_4Cl
     RDKit          2D

 15 15  0  0  0  0  0  0  0  0999 V2000
   -2.0582    1.9063    0.0000 N   0  0  0  0  0  0  0  0  0  0  0  0
   -2.2997    0.4259    0.0000 C   0  0  0  0  0  0  0  0  0  0  0  0
   -1.1384   -0.5235    0.0000 C   0  0  0  0  0  0  0  0  0  0  0  0
    0.2645    0.0075    0.0000 C   0  0  0  0  0  0  0  0  0  0  0  0
    0.5060    1.4879    0.0000 C   0  0  0  0  0  0  0  0  0  0  0  0
    1.9089    2.0190    0.0000 C   0  0  0  0  0  0  0  0  0  0  0  0
    3.0702    1.0696    0.0000 C   0  0  0  0  0  0  0  0  0  0  0  0
    4.4730    1.6006    0.0000 Cl  0  0  0  0  0  0  0  0  0  0  0  0
    2.8286   -0.4108    0.0000 C   0  0  0  0  0  0  0  0  0  0  0  0
    1.4258   -0.9419    0.0000 C   0  0  0  0  0  0  0  0  0  0  0  0
    1.1842   -2.4223    0.0000 O   0  0  0  0  0  0  0  0  0  0  0  0
    2.3456   -3.3717    0.0000 C   0  0  0  0  0  0  0  0  0  0  0  0
   -3.7026   -0.1052    0.0000 C   0  0  0  0  0  0  0  0  0  0  0  0
   -3.9441   -1.5856    0.0000 O   0  0  0  0  0  0  0  0  0  0  0  0
   -4.8639    0.8442    0.0000 O   0  0  0  0  0  0  0  0  0  0  0  0
  2  1  1  1
  2  3  1  0
  3  4  1  0
  4  5  1  0
  5  6  2  0
  6  7  1  0
  7  8  1  0
  7  9  2  0
  9 10  1  0
 10 11  1  0
 11 12  1  0
  2 13  1  0
 13 14  2  0
 13 15  1  0
 10  4  2  0
M  END
>  <rName>  (2028) 
Phe_2OMe_4Cl

>  <PQ_SYMBOL>  (2028) 
Phe_2OMe_4Cl

>  <FULL_NAME>  (2028) 
(S)-2-amino-3-(4-chloro-2-methoxyphenyl)propanoic acid

>  <IUPAC_CONDENSED>  (2028) 
Phe(2-OMe,4-Cl)

>  <IUPAC>  (2028) 
(2S)-2-amino-3-(4-chloro-2-methoxyphenyl)propanoic acid

>  <TYPE>  (2028) 
Backbone

>  <CLASS>  (2028) 
alpha

>  <ANALOG>  (2028) 
Tyr

>  <MOL_WT>  (2028) 
229.66299999999998

>  <LOGP>  (2028) 
1.3030000000000002

>  <TPSA>  (2028) 
72.55

>  <POPULARITY>  (2028) 
2.9

>  <PROTECTED>  (2028) 
TRUE

>  <SMILES>  (2028) 
N[C@@H](Cc1(ccc(Cl)cc1OC))C(=O)O

>  <INCHIKEY>  (2028) 
CRVNEIVGFSMKNQ-QMMMGPOBSA-N

$$$$
1Nal_Me
     RDKit          2D

 17 18  0  0  0  0  0  0  0  0999 V2000
    1.3474   -1.5073    0.0000 N   0  0  0  0  0  0  0  0  0  0  0  0
    2.0769   -0.1966    0.0000 C   0  0  0  0  0  0  0  0  0  0  0  0
    1.3065    1.0905    0.0000 C   0  0  0  0  0  0  0  0  0  0  0  0
   -0.1933    1.0669    0.0000 C   0  0  0  0  0  0  0  0  0  0  0  0
   -0.9636    2.3540    0.0000 C   0  0  0  0  0  0  0  0  0  0  0  0
   -0.2342    3.6646    0.0000 C   0  0  0  0  0  0  0  0  0  0  0  0
   -2.4635    2.3303    0.0000 C   0  0  0  0  0  0  0  0  0  0  0  0
   -3.1929    1.0197    0.0000 C   0  0  0  0  0  0  0  0  0  0  0  0
   -2.4226   -0.2674    0.0000 C   0  0  0  0  0  0  0  0  0  0  0  0
   -3.1520   -1.5781    0.0000 C   0  0  0  0  0  0  0  0  0  0  0  0
   -2.3817   -2.8652    0.0000 C   0  0  0  0  0  0  0  0  0  0  0  0
   -0.8819   -2.8416    0.0000 C   0  0  0  0  0  0  0  0  0  0  0  0
   -0.1524   -1.5309    0.0000 C   0  0  0  0  0  0  0  0  0  0  0  0
   -0.9227   -0.2438    0.0000 C   0  0  0  0  0  0  0  0  0  0  0  0
    3.5767   -0.1730    0.0000 C   0  0  0  0  0  0  0  0  0  0  0  0
    4.3062    1.1377    0.0000 O   0  0  0  0  0  0  0  0  0  0  0  0
    4.3470   -1.4600    0.0000 O   0  0  0  0  0  0  0  0  0  0  0  0
  2  1  1  1
  2  3  1  0
  3  4  1  0
  4  5  2  0
  5  6  1  0
  5  7  1  0
  7  8  2  0
  8  9  1  0
  9 10  2  0
 10 11  1  0
 11 12  2  0
 12 13  1  0
 13 14  2  0
  2 15  1  0
 15 16  2  0
 15 17  1  0
 14  9  1  0
 14  4  1  0
M  END
>  <rName>  (2029) 
1Nal_Me

>  <PQ_SYMBOL>  (2029) 
1Nal_Me

>  <FULL_NAME>  (2029) 
(S)-2-amino-3-(2-methylnaphthalen-1-yl)propanoic acid

>  <IUPAC_CONDENSED>  (2029) 
1Nal(Me)

>  <IUPAC>  (2029) 
(2S)-2-amino-3-(2-methylnaphthalen-1-yl)propanoic acid

>  <TYPE>  (2029) 
Backbone

>  <CLASS>  (2029) 
alpha

>  <ANALOG>  (2029) 
Phe

>  <MOL_WT>  (2029) 
229.279

>  <LOGP>  (2029) 
2.10262

>  <TPSA>  (2029) 
63.32000000000001

>  <POPULARITY>  (2029) 
4.4

>  <PROTECTED>  (2029) 
TRUE

>  <SMILES>  (2029) 
N[C@@H](Cc2(c(C)ccc1(ccccc12)))C(=O)O

>  <INCHIKEY>  (2029) 
FTKYILMCBINOLV-ZDUSSCGKSA-N

$$$$
Ala_pyrazol4yl_1CHF2
     RDKit          2D

 14 14  0  0  0  0  0  0  0  0999 V2000
   -1.5471    1.5948    0.0000 N   0  0  0  0  0  0  0  0  0  0  0  0
   -2.2681    0.2794    0.0000 C   0  0  0  0  0  0  0  0  0  0  0  0
   -1.4895   -1.0027    0.0000 C   0  0  0  0  0  0  0  0  0  0  0  0
    0.0102   -0.9694    0.0000 C   0  0  0  0  0  0  0  0  0  0  0  0
    0.9186   -2.1630    0.0000 C   0  0  0  0  0  0  0  0  0  0  0  0
    2.3345   -1.6679    0.0000 N   0  0  0  0  0  0  0  0  0  0  0  0
    2.3012   -0.1683    0.0000 N   0  0  0  0  0  0  0  0  0  0  0  0
    0.8647    0.2634    0.0000 C   0  0  0  0  0  0  0  0  0  0  0  0
    3.4949    0.7401    0.0000 C   0  0  0  0  0  0  0  0  0  0  0  0
    4.8784    0.1605    0.0000 F   0  0  0  0  0  0  0  0  0  0  0  0
    3.3050    2.2280    0.0000 F   0  0  0  0  0  0  0  0  0  0  0  0
   -3.7677    0.2461    0.0000 C   0  0  0  0  0  0  0  0  0  0  0  0
   -4.4887   -1.0692    0.0000 O   0  0  0  0  0  0  0  0  0  0  0  0
   -4.5464    1.5282    0.0000 O   0  0  0  0  0  0  0  0  0  0  0  0
  2  1  1  1
  2  3  1  0
  3  4  1  0
  4  5  1  0
  5  6  2  0
  6  7  1  0
  7  8  1  0
  7  9  1  0
  9 10  1  0
  9 11  1  0
  2 12  1  0
 12 13  2  0
 12 14  1  0
  8  4  2  0
M  END
>  <rName>  (2030) 
Ala_pyrazol4yl_1CHF2

>  <PQ_SYMBOL>  (2030) 
Ala_pyrazol4yl_1CHF2

>  <FULL_NAME>  (2030) 
(S)-2-amino-3-(1-(difluoromethyl)-1H-pyrazol-4-yl)propanoic acid

>  <IUPAC_CONDENSED>  (2030) 
Ala(pyrazol-4-yl(1-CHF2))

>  <IUPAC>  (2030) 
(2S)-2-amino-3-(1-(difluoromethyl)-1H-pyrazol-4-yl)propanoic acid

>  <TYPE>  (2030) 
Backbone

>  <CLASS>  (2030) 
alpha

>  <ANALOG>  (2030) 
Phe

>  <MOL_WT>  (2030) 
205.16399999999996

>  <LOGP>  (2030) 
0.23259999999999964

>  <TPSA>  (2030) 
81.14

>  <POPULARITY>  (2030) 
3.1

>  <PROTECTED>  (2030) 
TRUE

>  <SMILES>  (2030) 
N[C@@H](Cc1(cnn(c1)C(F)F))C(=O)O

>  <INCHIKEY>  (2030) 
KHWMCCVACUKXCE-YFKPBYRVSA-N

$$$$
D-hPhe_3OCF3
     RDKit          2D

 18 18  0  0  0  0  0  0  0  0999 V2000
   -3.5290   -2.2572    0.0000 N   0  0  0  0  0  0  0  0  0  0  0  0
   -3.7516   -0.7738    0.0000 C   0  0  0  0  0  0  0  0  0  0  0  0
   -2.5783    0.1607    0.0000 C   0  0  0  0  0  0  0  0  0  0  0  0
   -1.1823   -0.3882    0.0000 C   0  0  0  0  0  0  0  0  0  0  0  0
   -0.0090    0.5464    0.0000 C   0  0  0  0  0  0  0  0  0  0  0  0
   -0.2317    2.0298    0.0000 C   0  0  0  0  0  0  0  0  0  0  0  0
    0.9416    2.9643    0.0000 C   0  0  0  0  0  0  0  0  0  0  0  0
    2.3376    2.4154    0.0000 C   0  0  0  0  0  0  0  0  0  0  0  0
    2.5603    0.9321    0.0000 C   0  0  0  0  0  0  0  0  0  0  0  0
    3.9562    0.3832    0.0000 O   0  0  0  0  0  0  0  0  0  0  0  0
    4.1789   -1.1002    0.0000 C   0  0  0  0  0  0  0  0  0  0  0  0
    4.4016   -2.5836    0.0000 F   0  0  0  0  0  0  0  0  0  0  0  0
    5.6623   -0.8775    0.0000 F   0  0  0  0  0  0  0  0  0  0  0  0
    2.6955   -1.3228    0.0000 F   0  0  0  0  0  0  0  0  0  0  0  0
    1.3869   -0.0025    0.0000 C   0  0  0  0  0  0  0  0  0  0  0  0
   -5.1476   -0.2250    0.0000 C   0  0  0  0  0  0  0  0  0  0  0  0
   -5.3703    1.2584    0.0000 O   0  0  0  0  0  0  0  0  0  0  0  0
   -6.3209   -1.1595    0.0000 O   0  0  0  0  0  0  0  0  0  0  0  0
  2  1  1  1
  2  3  1  0
  3  4  1  0
  4  5  1  0
  5  6  1  0
  6  7  2  0
  7  8  1  0
  8  9  2  0
  9 10  1  0
 10 11  1  0
 11 12  1  0
 11 13  1  0
 11 14  1  0
  9 15  1  0
  2 16  1  0
 16 17  2  0
 16 18  1  0
 15  5  2  0
M  END
>  <rName>  (2031) 
D-hPhe_3OCF3

>  <PQ_SYMBOL>  (2031) 
D-hPhe_3OCF3

>  <FULL_NAME>  (2031) 
(R)-2-amino-4-(3-(trifluoromethoxy)phenyl)butanoic acid

>  <IUPAC_CONDENSED>  (2031) 
D-hPhe(3-OCF3)

>  <IUPAC>  (2031) 
(2R)-2-amino-4-(3-((trifluoromethyl)oxy)phenyl)butanoic acid

>  <TYPE>  (2031) 
Backbone

>  <CLASS>  (2031) 
alpha

>  <ANALOG>  (2031) 
Tyr

>  <MOL_WT>  (2031) 
263.2149999999999

>  <LOGP>  (2031) 
1.9297

>  <TPSA>  (2031) 
72.55

>  <POPULARITY>  (2031) 
3

>  <PROTECTED>  (2031) 
TRUE

>  <SMILES>  (2031) 
N[C@H](CCc1(cccc(OC(F)(F)F)c1))C(=O)O

>  <INCHIKEY>  (2031) 
XXWHKZICAUCGPQ-SECBINFHSA-N

$$$$
hPhe_3OCF3
     RDKit          2D

 18 18  0  0  0  0  0  0  0  0999 V2000
   -3.5290   -2.2572    0.0000 N   0  0  0  0  0  0  0  0  0  0  0  0
   -3.7516   -0.7738    0.0000 C   0  0  0  0  0  0  0  0  0  0  0  0
   -2.5783    0.1607    0.0000 C   0  0  0  0  0  0  0  0  0  0  0  0
   -1.1823   -0.3882    0.0000 C   0  0  0  0  0  0  0  0  0  0  0  0
   -0.0090    0.5464    0.0000 C   0  0  0  0  0  0  0  0  0  0  0  0
   -0.2317    2.0298    0.0000 C   0  0  0  0  0  0  0  0  0  0  0  0
    0.9416    2.9643    0.0000 C   0  0  0  0  0  0  0  0  0  0  0  0
    2.3376    2.4154    0.0000 C   0  0  0  0  0  0  0  0  0  0  0  0
    2.5603    0.9321    0.0000 C   0  0  0  0  0  0  0  0  0  0  0  0
    3.9562    0.3832    0.0000 O   0  0  0  0  0  0  0  0  0  0  0  0
    4.1789   -1.1002    0.0000 C   0  0  0  0  0  0  0  0  0  0  0  0
    4.4016   -2.5836    0.0000 F   0  0  0  0  0  0  0  0  0  0  0  0
    5.6623   -0.8775    0.0000 F   0  0  0  0  0  0  0  0  0  0  0  0
    2.6955   -1.3228    0.0000 F   0  0  0  0  0  0  0  0  0  0  0  0
    1.3869   -0.0025    0.0000 C   0  0  0  0  0  0  0  0  0  0  0  0
   -5.1476   -0.2250    0.0000 C   0  0  0  0  0  0  0  0  0  0  0  0
   -5.3703    1.2584    0.0000 O   0  0  0  0  0  0  0  0  0  0  0  0
   -6.3209   -1.1595    0.0000 O   0  0  0  0  0  0  0  0  0  0  0  0
  2  1  1  6
  2  3  1  0
  3  4  1  0
  4  5  1  0
  5  6  1  0
  6  7  2  0
  7  8  1  0
  8  9  2  0
  9 10  1  0
 10 11  1  0
 11 12  1  0
 11 13  1  0
 11 14  1  0
  9 15  1  0
  2 16  1  0
 16 17  2  0
 16 18  1  0
 15  5  2  0
M  END
>  <rName>  (2032) 
hPhe_3OCF3

>  <PQ_SYMBOL>  (2032) 
hPhe_3OCF3

>  <FULL_NAME>  (2032) 
(S)-2-amino-4-(3-(trifluoromethoxy)phenyl)butanoic acid

>  <IUPAC_CONDENSED>  (2032) 
hPhe(3-OCF3)

>  <IUPAC>  (2032) 
(2S)-2-amino-4-(3-((trifluoromethyl)oxy)phenyl)butanoic acid

>  <TYPE>  (2032) 
Backbone

>  <CLASS>  (2032) 
alpha

>  <ANALOG>  (2032) 
Tyr

>  <MOL_WT>  (2032) 
263.2149999999999

>  <LOGP>  (2032) 
1.9297

>  <TPSA>  (2032) 
72.55

>  <POPULARITY>  (2032) 
3

>  <PROTECTED>  (2032) 
TRUE

>  <SMILES>  (2032) 
N[C@@H](CCc1(cccc(OC(F)(F)F)c1))C(=O)O

>  <INCHIKEY>  (2032) 
XXWHKZICAUCGPQ-VIFPVBQESA-N

$$$$
Phe_25diCO2H
     RDKit          2D

 18 18  0  0  0  0  0  0  0  0999 V2000
    1.2062   -2.3415    0.0000 N   0  0  0  0  0  0  0  0  0  0  0  0
    2.1185   -1.1508    0.0000 C   0  0  0  0  0  0  0  0  0  0  0  0
    1.5435    0.2346    0.0000 C   0  0  0  0  0  0  0  0  0  0  0  0
    0.0562    0.4293    0.0000 C   0  0  0  0  0  0  0  0  0  0  0  0
   -0.8561   -0.7613    0.0000 C   0  0  0  0  0  0  0  0  0  0  0  0
   -2.3434   -0.5666    0.0000 C   0  0  0  0  0  0  0  0  0  0  0  0
   -2.9184    0.8189    0.0000 C   0  0  0  0  0  0  0  0  0  0  0  0
   -2.0061    2.0095    0.0000 C   0  0  0  0  0  0  0  0  0  0  0  0
   -0.5188    1.8148    0.0000 C   0  0  0  0  0  0  0  0  0  0  0  0
    0.3936    3.0054    0.0000 C   0  0  0  0  0  0  0  0  0  0  0  0
    1.8809    2.8107    0.0000 O   0  0  0  0  0  0  0  0  0  0  0  0
   -0.1814    4.3909    0.0000 O   0  0  0  0  0  0  0  0  0  0  0  0
   -3.2557   -1.7572    0.0000 C   0  0  0  0  0  0  0  0  0  0  0  0
   -2.6807   -3.1426    0.0000 O   0  0  0  0  0  0  0  0  0  0  0  0
   -4.7430   -1.5624    0.0000 O   0  0  0  0  0  0  0  0  0  0  0  0
    3.6058   -1.3456    0.0000 C   0  0  0  0  0  0  0  0  0  0  0  0
    4.5181   -0.1549    0.0000 O   0  0  0  0  0  0  0  0  0  0  0  0
    4.1808   -2.7310    0.0000 O   0  0  0  0  0  0  0  0  0  0  0  0
  2  1  1  1
  2  3  1  0
  3  4  1  0
  4  5  1  0
  5  6  2  0
  6  7  1  0
  7  8  2  0
  8  9  1  0
  9 10  1  0
 10 11  2  0
 10 12  1  0
  6 13  1  0
 13 14  2  0
 13 15  1  0
  2 16  1  0
 16 17  2  0
 16 18  1  0
  9  4  2  0
M  END
>  <rName>  (2033) 
Phe_25diCO2H

>  <PQ_SYMBOL>  (2033) 
Phe_25diCO2H

>  <FULL_NAME>  (2033) 
(S)-2-(2-amino-2-carboxyethyl)terephthalic acid

>  <IUPAC_CONDENSED>  (2033) 
Phe(2,5-diCO2H)

>  <IUPAC>  (2033) 
2-((2S)-2-amino-3-hydroxy-3-oxopropyl)benzene-1,4-dicarboxylic acid

>  <TYPE>  (2033) 
Backbone

>  <CLASS>  (2033) 
alpha

>  <ANALOG>  (2033) 
Phe

>  <MOL_WT>  (2033) 
253.20999999999995

>  <LOGP>  (2033) 
0.03739999999999977

>  <TPSA>  (2033) 
137.92000000000002

>  <POPULARITY>  (2033) 
2.2

>  <PROTECTED>  (2033) 
TRUE

>  <SMILES>  (2033) 
N[C@@H](Cc1(cc(ccc1C(=O)O)C(=O)O))C(=O)O

>  <INCHIKEY>  (2033) 
JWPJTBJZZSTIPV-QMMMGPOBSA-N

$$$$
Ala_benzofuran3yl
     RDKit          2D

 15 16  0  0  0  0  0  0  0  0999 V2000
   -2.6183   -1.7023    0.0000 N   0  0  0  0  0  0  0  0  0  0  0  0
   -2.5622   -0.2034    0.0000 C   0  0  0  0  0  0  0  0  0  0  0  0
   -1.2360    0.4975    0.0000 C   0  0  0  0  0  0  0  0  0  0  0  0
    0.0341   -0.3006    0.0000 C   0  0  0  0  0  0  0  0  0  0  0  0
    0.1349   -1.7972    0.0000 C   0  0  0  0  0  0  0  0  0  0  0  0
    1.5895   -2.1637    0.0000 O   0  0  0  0  0  0  0  0  0  0  0  0
    2.3875   -0.8937    0.0000 C   0  0  0  0  0  0  0  0  0  0  0  0
    3.8654   -0.6369    0.0000 C   0  0  0  0  0  0  0  0  0  0  0  0
    4.3820    0.7713    0.0000 C   0  0  0  0  0  0  0  0  0  0  0  0
    3.4207    1.9228    0.0000 C   0  0  0  0  0  0  0  0  0  0  0  0
    1.9429    1.6661    0.0000 C   0  0  0  0  0  0  0  0  0  0  0  0
    1.4263    0.2578    0.0000 C   0  0  0  0  0  0  0  0  0  0  0  0
   -3.8322    0.5947    0.0000 C   0  0  0  0  0  0  0  0  0  0  0  0
   -3.7761    2.0937    0.0000 O   0  0  0  0  0  0  0  0  0  0  0  0
   -5.1584   -0.1061    0.0000 O   0  0  0  0  0  0  0  0  0  0  0  0
  2  1  1  6
  2  3  1  0
  3  4  1  0
  4  5  2  0
  5  6  1  0
  6  7  1  0
  7  8  2  0
  8  9  1  0
  9 10  2  0
 10 11  1  0
 11 12  2  0
  2 13  1  0
 13 14  2  0
 13 15  1  0
 12  7  1  0
 12  4  1  0
M  END
>  <rName>  (2034) 
Ala_benzofuran3yl

>  <PQ_SYMBOL>  (2034) 
Ala_benzofuran3yl

>  <FULL_NAME>  (2034) 
(S)-2-amino-3-(benzofuran-3-yl)propanoic acid

>  <IUPAC_CONDENSED>  (2034) 
Ala(benzofuran-3-yl)

>  <IUPAC>  (2034) 
(2S)-2-amino-3-(1-benzofuran-3-yl)propanoic acid

>  <TYPE>  (2034) 
Backbone

>  <CLASS>  (2034) 
alpha

>  <ANALOG>  (2034) 
Phe

>  <MOL_WT>  (2034) 
205.21299999999997

>  <LOGP>  (2034) 
1.3872

>  <TPSA>  (2034) 
76.46

>  <POPULARITY>  (2034) 
3.7

>  <PROTECTED>  (2034) 
TRUE

>  <SMILES>  (2034) 
N[C@@H](Cc2(coc1(ccccc12)))C(=O)O

>  <INCHIKEY>  (2034) 
IIQKYWMOMQWBER-VIFPVBQESA-N

$$$$
Phe_26diMe_4CONH2
     RDKit          2D

 17 17  0  0  0  0  0  0  0  0999 V2000
   -2.2485    1.7191    0.0000 N   0  0  0  0  0  0  0  0  0  0  0  0
   -2.7193    0.2949    0.0000 C   0  0  0  0  0  0  0  0  0  0  0  0
   -1.7214   -0.8249    0.0000 C   0  0  0  0  0  0  0  0  0  0  0  0
   -0.2526   -0.5206    0.0000 C   0  0  0  0  0  0  0  0  0  0  0  0
    0.2183    0.9036    0.0000 C   0  0  0  0  0  0  0  0  0  0  0  0
   -0.7797    2.0235    0.0000 C   0  0  0  0  0  0  0  0  0  0  0  0
    1.6871    1.2080    0.0000 C   0  0  0  0  0  0  0  0  0  0  0  0
    2.6850    0.0881    0.0000 C   0  0  0  0  0  0  0  0  0  0  0  0
    2.2142   -1.3361    0.0000 C   0  0  0  0  0  0  0  0  0  0  0  0
    0.7454   -1.6404    0.0000 C   0  0  0  0  0  0  0  0  0  0  0  0
    0.2746   -3.0646    0.0000 C   0  0  0  0  0  0  0  0  0  0  0  0
    4.1538    0.3925    0.0000 C   0  0  0  0  0  0  0  0  0  0  0  0
    4.6246    1.8167    0.0000 O   0  0  0  0  0  0  0  0  0  0  0  0
    5.1518   -0.7273    0.0000 N   0  0  0  0  0  0  0  0  0  0  0  0
   -4.1881   -0.0094    0.0000 C   0  0  0  0  0  0  0  0  0  0  0  0
   -4.6590   -1.4336    0.0000 O   0  0  0  0  0  0  0  0  0  0  0  0
   -5.1861    1.1104    0.0000 O   0  0  0  0  0  0  0  0  0  0  0  0
  2  1  1  1
  2  3  1  0
  3  4  1  0
  4  5  2  0
  5  6  1  0
  5  7  1  0
  7  8  2  0
  8  9  1  0
  9 10  2  0
 10 11  1  0
  8 12  1  0
 12 13  2  0
 12 14  1  0
  2 15  1  0
 15 16  2  0
 15 17  1  0
 10  4  1  0
M  END
>  <rName>  (2035) 
Phe_26diMe_4CONH2

>  <PQ_SYMBOL>  (2035) 
Phe_26diMe_4CONH2

>  <FULL_NAME>  (2035) 
(S)-2-amino-3-(4-carbamoyl-2,6-dimethylphenyl)propanoic acid

>  <IUPAC_CONDENSED>  (2035) 
Phe(2,6-diMe,4-CONH2)

>  <IUPAC>  (2035) 
(2S)-2-amino-3-(4-carbamoyl-2,6-dimethylphenyl)propanoic acid

>  <TYPE>  (2035) 
Backbone

>  <CLASS>  (2035) 
alpha

>  <ANALOG>  (2035) 
Phe

>  <MOL_WT>  (2035) 
236.27099999999996

>  <LOGP>  (2035) 
0.3567400000000001

>  <TPSA>  (2035) 
106.41000000000001

>  <POPULARITY>  (2035) 
5.5

>  <PROTECTED>  (2035) 
TRUE

>  <SMILES>  (2035) 
N[C@@H](Cc1(c(C)cc(cc1C)C(=O)N))C(=O)O

>  <INCHIKEY>  (2035) 
BUKDMWMYQQXMQS-JTQLQIEISA-N

$$$$
D-Lys_CON_piperazino_4CH2CO2H
     RDKit          2D

 22 22  0  0  0  0  0  0  0  0999 V2000
   -7.0280   -1.6051    0.0000 N   0  0  0  0  0  0  0  0  0  0  0  0
   -6.8516   -0.1155    0.0000 C   0  0  0  0  0  0  0  0  0  0  0  0
   -5.4733    0.4765    0.0000 C   0  0  0  0  0  0  0  0  0  0  0  0
   -4.2715   -0.4211    0.0000 C   0  0  0  0  0  0  0  0  0  0  0  0
   -2.8933    0.1710    0.0000 C   0  0  0  0  0  0  0  0  0  0  0  0
   -1.6915   -0.7266    0.0000 C   0  0  0  0  0  0  0  0  0  0  0  0
   -0.3132   -0.1346    0.0000 N   0  0  0  0  0  0  0  0  0  0  0  0
    0.8886   -1.0321    0.0000 C   0  0  0  0  0  0  0  0  0  0  0  0
    0.7122   -2.5217    0.0000 O   0  0  0  0  0  0  0  0  0  0  0  0
    2.2668   -0.4401    0.0000 N   0  0  0  0  0  0  0  0  0  0  0  0
    2.4432    1.0495    0.0000 C   0  0  0  0  0  0  0  0  0  0  0  0
    3.8214    1.6415    0.0000 C   0  0  0  0  0  0  0  0  0  0  0  0
    5.0233    0.7440    0.0000 N   0  0  0  0  0  0  0  0  0  0  0  0
    6.4015    1.3360    0.0000 C   0  0  0  0  0  0  0  0  0  0  0  0
    7.6033    0.4384    0.0000 C   0  0  0  0  0  0  0  0  0  0  0  0
    7.4269   -1.0511    0.0000 O   0  0  0  0  0  0  0  0  0  0  0  0
    8.9815    1.0305    0.0000 O   0  0  0  0  0  0  0  0  0  0  0  0
    4.8469   -0.7456    0.0000 C   0  0  0  0  0  0  0  0  0  0  0  0
    3.4686   -1.3376    0.0000 C   0  0  0  0  0  0  0  0  0  0  0  0
   -8.0534    0.7820    0.0000 C   0  0  0  0  0  0  0  0  0  0  0  0
   -7.8770    2.2716    0.0000 O   0  0  0  0  0  0  0  0  0  0  0  0
   -9.4316    0.1900    0.0000 O   0  0  0  0  0  0  0  0  0  0  0  0
  2  1  1  1
  2  3  1  0
  3  4  1  0
  4  5  1  0
  5  6  1  0
  6  7  1  0
  7  8  1  0
  8  9  2  0
  8 10  1  0
 10 11  1  0
 11 12  1  0
 12 13  1  0
 13 14  1  0
 14 15  1  0
 15 16  2  0
 15 17  1  0
 13 18  1  0
 18 19  1  0
  2 20  1  0
 20 21  2  0
 20 22  1  0
 19 10  1  0
M  END
>  <rName>  (2036) 
D-Lys_CON_piperazino_4CH2CO2H

>  <PQ_SYMBOL>  (2036) 
D-Lys_CON_piperazino_4CH2CO2H

>  <FULL_NAME>  (2036) 
N6-(4-(carboxymethyl)piperazine-1-carbonyl)-D-lysine

>  <IUPAC_CONDENSED>  (2036) 
D-Lys(CON(piperazino(4-CH2CO2H)))

>  <IUPAC>  (2036) 
(2R)-2-amino-6-(4-(2-hydroxy-2-oxoethyl)piperazin-1-ylcarbonylamino)hexanoic acid

>  <TYPE>  (2036) 
Backbone

>  <CLASS>  (2036) 
alpha

>  <ANALOG>  (2036) 
Gly

>  <MOL_WT>  (2036) 
316.35800000000006

>  <LOGP>  (2036) 
-1.019599999999996

>  <TPSA>  (2036) 
136.2

>  <POPULARITY>  (2036) 
3

>  <PROTECTED>  (2036) 
TRUE

>  <SMILES>  (2036) 
N[C@H](CCCCNC(=O)N1CCN(CC(=O)O)CC1)C(=O)O

>  <INCHIKEY>  (2036) 
SBZYGFGUJJCDND-SNVBAGLBSA-N

$$$$
Ala_pyrazol5yl_1Me
     RDKit          2D

 12 12  0  0  0  0  0  0  0  0999 V2000
   -0.9675    1.5404    0.0000 N   0  0  0  0  0  0  0  0  0  0  0  0
   -1.3813    0.0986    0.0000 C   0  0  0  0  0  0  0  0  0  0  0  0
   -0.3395   -0.9807    0.0000 C   0  0  0  0  0  0  0  0  0  0  0  0
    1.1160   -0.6181    0.0000 C   0  0  0  0  0  0  0  0  0  0  0  0
    2.2649   -1.5825    0.0000 C   0  0  0  0  0  0  0  0  0  0  0  0
    3.5371   -0.7879    0.0000 C   0  0  0  0  0  0  0  0  0  0  0  0
    3.1745    0.6676    0.0000 N   0  0  0  0  0  0  0  0  0  0  0  0
    1.6782    0.7725    0.0000 N   0  0  0  0  0  0  0  0  0  0  0  0
    0.8836    2.0448    0.0000 C   0  0  0  0  0  0  0  0  0  0  0  0
   -2.8368   -0.2640    0.0000 C   0  0  0  0  0  0  0  0  0  0  0  0
   -3.2506   -1.7058    0.0000 O   0  0  0  0  0  0  0  0  0  0  0  0
   -3.8786    0.8152    0.0000 O   0  0  0  0  0  0  0  0  0  0  0  0
  2  1  1  1
  2  3  1  0
  3  4  1  0
  4  5  2  0
  5  6  1  0
  6  7  2  0
  7  8  1  0
  8  9  1  0
  2 10  1  0
 10 11  2  0
 10 12  1  0
  8  4  1  0
M  END
>  <rName>  (2037) 
Ala_pyrazol5yl_1Me

>  <PQ_SYMBOL>  (2037) 
Ala_pyrazol5yl_1Me

>  <FULL_NAME>  (2037) 
(S)-2-amino-3-(1-methyl-1H-pyrazol-5-yl)propanoic acid

>  <IUPAC_CONDENSED>  (2037) 
Ala(pyrazol-5-yl(1-Me))

>  <IUPAC>  (2037) 
(2S)-2-amino-3-(1-methyl-1H-pyrazol-5-yl)propanoic acid

>  <TYPE>  (2037) 
Backbone

>  <CLASS>  (2037) 
alpha

>  <ANALOG>  (2037) 
Phe

>  <MOL_WT>  (2037) 
169.184

>  <LOGP>  (2037) 
-0.6255000000000002

>  <TPSA>  (2037) 
81.14

>  <POPULARITY>  (2037) 
3.9

>  <PROTECTED>  (2037) 
TRUE

>  <SMILES>  (2037) 
N[C@@H](Cc1(ccnn1C))C(=O)O

>  <INCHIKEY>  (2037) 
HUGPTUGINQUZCX-LURJTMIESA-N

$$$$
Phe_2CN_3Cl
     RDKit          2D

 15 15  0  0  0  0  0  0  0  0999 V2000
   -2.1898    1.8748    0.0000 N   0  0  0  0  0  0  0  0  0  0  0  0
   -2.2403    0.3757    0.0000 C   0  0  0  0  0  0  0  0  0  0  0  0
   -0.9672   -0.4177    0.0000 C   0  0  0  0  0  0  0  0  0  0  0  0
    0.3563    0.2882    0.0000 C   0  0  0  0  0  0  0  0  0  0  0  0
    0.4068    1.7873    0.0000 C   0  0  0  0  0  0  0  0  0  0  0  0
    1.7304    2.4931    0.0000 C   0  0  0  0  0  0  0  0  0  0  0  0
    3.0034    1.6998    0.0000 C   0  0  0  0  0  0  0  0  0  0  0  0
    2.9529    0.2006    0.0000 C   0  0  0  0  0  0  0  0  0  0  0  0
    4.2260   -0.5927    0.0000 Cl  0  0  0  0  0  0  0  0  0  0  0  0
    1.6294   -0.5052    0.0000 C   0  0  0  0  0  0  0  0  0  0  0  0
    1.5788   -2.0043    0.0000 C   0  0  0  0  0  0  0  0  0  0  0  0
    1.5283   -3.5035    0.0000 N   0  0  0  0  0  0  0  0  0  0  0  0
   -3.5638   -0.3301    0.0000 C   0  0  0  0  0  0  0  0  0  0  0  0
   -3.6144   -1.8293    0.0000 O   0  0  0  0  0  0  0  0  0  0  0  0
   -4.8369    0.4632    0.0000 O   0  0  0  0  0  0  0  0  0  0  0  0
  2  1  1  1
  2  3  1  0
  3  4  1  0
  4  5  2  0
  5  6  1  0
  6  7  2  0
  7  8  1  0
  8  9  1  0
  8 10  2  0
 10 11  1  0
 11 12  3  0
  2 13  1  0
 13 14  2  0
 13 15  1  0
 10  4  1  0
M  END
>  <rName>  (2038) 
Phe_2CN_3Cl

>  <PQ_SYMBOL>  (2038) 
Phe_2CN_3Cl

>  <FULL_NAME>  (2038) 
(S)-2-amino-3-(3-chloro-2-cyanophenyl)propanoic acid

>  <IUPAC_CONDENSED>  (2038) 
Phe(2-CN,3-Cl)

>  <IUPAC>  (2038) 
(2S)-2-amino-3-(3-chloro-2-(nitrilomethyl)phenyl)propanoic acid

>  <TYPE>  (2038) 
Backbone

>  <CLASS>  (2038) 
alpha

>  <ANALOG>  (2038) 
Phe

>  <MOL_WT>  (2038) 
224.64699999999996

>  <LOGP>  (2038) 
1.16608

>  <TPSA>  (2038) 
87.11

>  <POPULARITY>  (2038) 
2.3

>  <PROTECTED>  (2038) 
TRUE

>  <SMILES>  (2038) 
N[C@@H](Cc1(cccc(Cl)c1C#N))C(=O)O

>  <INCHIKEY>  (2038) 
KGFGMPVUCKTCPO-VIFPVBQESA-N

$$$$
Phe_3CF3_4Cl
     RDKit          2D

 17 17  0  0  0  0  0  0  0  0999 V2000
   -3.0426    1.6364    0.0000 N   0  0  0  0  0  0  0  0  0  0  0  0
   -3.1302    0.1389    0.0000 C   0  0  0  0  0  0  0  0  0  0  0  0
   -1.8772   -0.6857    0.0000 C   0  0  0  0  0  0  0  0  0  0  0  0
   -0.5366   -0.0128    0.0000 C   0  0  0  0  0  0  0  0  0  0  0  0
   -0.4490    1.4846    0.0000 C   0  0  0  0  0  0  0  0  0  0  0  0
    0.8917    2.1575    0.0000 C   0  0  0  0  0  0  0  0  0  0  0  0
    2.1447    1.3329    0.0000 C   0  0  0  0  0  0  0  0  0  0  0  0
    3.4853    2.0058    0.0000 Cl  0  0  0  0  0  0  0  0  0  0  0  0
    2.0571   -0.1645    0.0000 C   0  0  0  0  0  0  0  0  0  0  0  0
    0.7165   -0.8374    0.0000 C   0  0  0  0  0  0  0  0  0  0  0  0
    3.3101   -0.9891    0.0000 C   0  0  0  0  0  0  0  0  0  0  0  0
    4.5631   -1.8137    0.0000 F   0  0  0  0  0  0  0  0  0  0  0  0
    2.4855   -2.2421    0.0000 F   0  0  0  0  0  0  0  0  0  0  0  0
    4.1347    0.2639    0.0000 F   0  0  0  0  0  0  0  0  0  0  0  0
   -4.4708   -0.5339    0.0000 C   0  0  0  0  0  0  0  0  0  0  0  0
   -4.5584   -2.0314    0.0000 O   0  0  0  0  0  0  0  0  0  0  0  0
   -5.7238    0.2906    0.0000 O   0  0  0  0  0  0  0  0  0  0  0  0
  2  1  1  1
  2  3  1  0
  3  4  1  0
  4  5  1  0
  5  6  2  0
  6  7  1  0
  7  8  1  0
  7  9  2  0
  9 10  1  0
  9 11  1  0
 11 12  1  0
 11 13  1  0
 11 14  1  0
  2 15  1  0
 15 16  2  0
 15 17  1  0
 10  4  2  0
M  END
>  <rName>  (2039) 
Phe_3CF3_4Cl

>  <PQ_SYMBOL>  (2039) 
Phe_3CF3_4Cl

>  <FULL_NAME>  (2039) 
(S)-2-amino-3-(4-chloro-3-(trifluoromethyl)phenyl)propanoic acid

>  <IUPAC_CONDENSED>  (2039) 
Phe(3-CF3,4-Cl)

>  <IUPAC>  (2039) 
(2S)-2-amino-3-(4-chloro-3-(trifluoromethyl)phenyl)propanoic acid

>  <TYPE>  (2039) 
Backbone

>  <CLASS>  (2039) 
alpha

>  <ANALOG>  (2039) 
Phe

>  <MOL_WT>  (2039) 
267.63399999999996

>  <LOGP>  (2039) 
2.3132

>  <TPSA>  (2039) 
63.32000000000001

>  <POPULARITY>  (2039) 
2.7

>  <PROTECTED>  (2039) 
TRUE

>  <SMILES>  (2039) 
N[C@@H](Cc1(ccc(Cl)c(c1)C(F)(F)F))C(=O)O

>  <INCHIKEY>  (2039) 
LHPSDJVDEMVFGM-QMMMGPOBSA-N

$$$$
Phe_3CO2H_4F
     RDKit          2D

 16 16  0  0  0  0  0  0  0  0999 V2000
   -2.7936    1.6481    0.0000 N   0  0  0  0  0  0  0  0  0  0  0  0
   -2.9203    0.1535    0.0000 C   0  0  0  0  0  0  0  0  0  0  0  0
   -1.6893   -0.7036    0.0000 C   0  0  0  0  0  0  0  0  0  0  0  0
   -0.3315   -0.0660    0.0000 C   0  0  0  0  0  0  0  0  0  0  0  0
   -0.2048    1.4287    0.0000 C   0  0  0  0  0  0  0  0  0  0  0  0
    1.1530    2.0662    0.0000 C   0  0  0  0  0  0  0  0  0  0  0  0
    2.3840    1.2092    0.0000 C   0  0  0  0  0  0  0  0  0  0  0  0
    3.7417    1.8468    0.0000 F   0  0  0  0  0  0  0  0  0  0  0  0
    2.2573   -0.2855    0.0000 C   0  0  0  0  0  0  0  0  0  0  0  0
    0.8995   -0.9230    0.0000 C   0  0  0  0  0  0  0  0  0  0  0  0
    3.4883   -1.1425    0.0000 C   0  0  0  0  0  0  0  0  0  0  0  0
    4.8461   -0.5049    0.0000 O   0  0  0  0  0  0  0  0  0  0  0  0
    3.3616   -2.6372    0.0000 O   0  0  0  0  0  0  0  0  0  0  0  0
   -4.2781   -0.4841    0.0000 C   0  0  0  0  0  0  0  0  0  0  0  0
   -4.4048   -1.9787    0.0000 O   0  0  0  0  0  0  0  0  0  0  0  0
   -5.5091    0.3730    0.0000 O   0  0  0  0  0  0  0  0  0  0  0  0
  2  1  1  1
  2  3  1  0
  3  4  1  0
  4  5  1  0
  5  6  2  0
  6  7  1  0
  7  8  1  0
  7  9  2  0
  9 10  1  0
  9 11  1  0
 11 12  2  0
 11 13  1  0
  2 14  1  0
 14 15  2  0
 14 16  1  0
 10  4  2  0
M  END
>  <rName>  (2040) 
Phe_3CO2H_4F

>  <PQ_SYMBOL>  (2040) 
Phe_3CO2H_4F

>  <FULL_NAME>  (2040) 
(S)-5-(2-amino-2-carboxyethyl)-2-fluorobenzoic acid

>  <IUPAC_CONDENSED>  (2040) 
Phe(3-CO2H,4-F)

>  <IUPAC>  (2040) 
5-((2S)-2-amino-3-hydroxy-3-oxopropyl)-2-fluorobenzene-1-carboxylic acid

>  <TYPE>  (2040) 
Backbone

>  <CLASS>  (2040) 
alpha

>  <ANALOG>  (2040) 
Phe

>  <MOL_WT>  (2040) 
227.19099999999997

>  <LOGP>  (2040) 
0.47829999999999984

>  <TPSA>  (2040) 
100.62000000000002

>  <POPULARITY>  (2040) 
3.5

>  <PROTECTED>  (2040) 
TRUE

>  <SMILES>  (2040) 
N[C@@H](Cc1(ccc(F)c(c1)C(=O)O))C(=O)O

>  <INCHIKEY>  (2040) 
TTYPJRVMUPGSMG-QMMMGPOBSA-N

$$$$
Phe_2Cl_4CN
     RDKit          2D

 15 15  0  0  0  0  0  0  0  0999 V2000
   -2.0190    1.8851    0.0000 N   0  0  0  0  0  0  0  0  0  0  0  0
   -2.4933    0.4621    0.0000 C   0  0  0  0  0  0  0  0  0  0  0  0
   -1.4981   -0.6602    0.0000 C   0  0  0  0  0  0  0  0  0  0  0  0
   -0.0285   -0.3594    0.0000 C   0  0  0  0  0  0  0  0  0  0  0  0
    0.4458    1.0636    0.0000 C   0  0  0  0  0  0  0  0  0  0  0  0
    1.9153    1.3644    0.0000 C   0  0  0  0  0  0  0  0  0  0  0  0
    2.9106    0.2421    0.0000 C   0  0  0  0  0  0  0  0  0  0  0  0
    4.3801    0.5428    0.0000 C   0  0  0  0  0  0  0  0  0  0  0  0
    5.8496    0.8436    0.0000 N   0  0  0  0  0  0  0  0  0  0  0  0
    2.4363   -1.1810    0.0000 C   0  0  0  0  0  0  0  0  0  0  0  0
    0.9667   -1.4817    0.0000 C   0  0  0  0  0  0  0  0  0  0  0  0
    0.4924   -2.9047    0.0000 Cl  0  0  0  0  0  0  0  0  0  0  0  0
   -3.9628    0.1614    0.0000 C   0  0  0  0  0  0  0  0  0  0  0  0
   -4.4371   -1.2617    0.0000 O   0  0  0  0  0  0  0  0  0  0  0  0
   -4.9581    1.2836    0.0000 O   0  0  0  0  0  0  0  0  0  0  0  0
  2  1  1  1
  2  3  1  0
  3  4  1  0
  4  5  1  0
  5  6  2  0
  6  7  1  0
  7  8  1  0
  8  9  3  0
  7 10  2  0
 10 11  1  0
 11 12  1  0
  2 13  1  0
 13 14  2  0
 13 15  1  0
 11  4  2  0
M  END
>  <rName>  (2041) 
Phe_2Cl_4CN

>  <PQ_SYMBOL>  (2041) 
Phe_2Cl_4CN

>  <FULL_NAME>  (2041) 
(S)-2-amino-3-(2-chloro-4-cyanophenyl)propanoic acid

>  <IUPAC_CONDENSED>  (2041) 
Phe(2-Cl,4-CN)

>  <IUPAC>  (2041) 
(2S)-2-amino-3-(2-chloro-4-(nitrilomethyl)phenyl)propanoic acid

>  <TYPE>  (2041) 
Backbone

>  <CLASS>  (2041) 
alpha

>  <ANALOG>  (2041) 
Phe

>  <MOL_WT>  (2041) 
224.647

>  <LOGP>  (2041) 
1.1660800000000002

>  <TPSA>  (2041) 
87.11

>  <POPULARITY>  (2041) 
2.6

>  <PROTECTED>  (2041) 
TRUE

>  <SMILES>  (2041) 
N[C@@H](Cc1(ccc(C#N)cc1Cl))C(=O)O

>  <INCHIKEY>  (2041) 
BSWJGMXSISAJKF-VIFPVBQESA-N

$$$$
Phe_2Me_3CO2H
     RDKit          2D

 16 16  0  0  0  0  0  0  0  0999 V2000
   -2.7535    1.6987    0.0000 N   0  0  0  0  0  0  0  0  0  0  0  0
   -2.7597    0.1988    0.0000 C   0  0  0  0  0  0  0  0  0  0  0  0
   -1.4637   -0.5565    0.0000 C   0  0  0  0  0  0  0  0  0  0  0  0
   -0.1616    0.1882    0.0000 C   0  0  0  0  0  0  0  0  0  0  0  0
   -0.1555    1.6881    0.0000 C   0  0  0  0  0  0  0  0  0  0  0  0
    1.1466    2.4328    0.0000 C   0  0  0  0  0  0  0  0  0  0  0  0
    2.4426    1.6775    0.0000 C   0  0  0  0  0  0  0  0  0  0  0  0
    2.4364    0.1776    0.0000 C   0  0  0  0  0  0  0  0  0  0  0  0
    3.7324   -0.5777    0.0000 C   0  0  0  0  0  0  0  0  0  0  0  0
    3.7263   -2.0777    0.0000 O   0  0  0  0  0  0  0  0  0  0  0  0
    5.0345    0.1670    0.0000 O   0  0  0  0  0  0  0  0  0  0  0  0
    1.1344   -0.5671    0.0000 C   0  0  0  0  0  0  0  0  0  0  0  0
    1.1282   -2.0671    0.0000 C   0  0  0  0  0  0  0  0  0  0  0  0
   -4.0618   -0.5459    0.0000 C   0  0  0  0  0  0  0  0  0  0  0  0
   -4.0679   -2.0459    0.0000 O   0  0  0  0  0  0  0  0  0  0  0  0
   -5.3577    0.2094    0.0000 O   0  0  0  0  0  0  0  0  0  0  0  0
  2  1  1  1
  2  3  1  0
  3  4  1  0
  4  5  1  0
  5  6  2  0
  6  7  1  0
  7  8  2  0
  8  9  1  0
  9 10  2  0
  9 11  1  0
  8 12  1  0
 12 13  1  0
  2 14  1  0
 14 15  2  0
 14 16  1  0
 12  4  2  0
M  END
>  <rName>  (2042) 
Phe_2Me_3CO2H

>  <PQ_SYMBOL>  (2042) 
Phe_2Me_3CO2H

>  <FULL_NAME>  (2042) 
(S)-3-(2-amino-2-carboxyethyl)-2-methylbenzoic acid

>  <IUPAC_CONDENSED>  (2042) 
Phe(2-Me,3-CO2H)

>  <IUPAC>  (2042) 
3-((2S)-2-amino-3-hydroxy-3-oxopropyl)-2-methylbenzene-1-carboxylic acid

>  <TYPE>  (2042) 
Backbone

>  <CLASS>  (2042) 
alpha

>  <ANALOG>  (2042) 
Phe

>  <MOL_WT>  (2042) 
223.22799999999995

>  <LOGP>  (2042) 
0.64762

>  <TPSA>  (2042) 
100.62000000000002

>  <POPULARITY>  (2042) 
2.7

>  <PROTECTED>  (2042) 
TRUE

>  <SMILES>  (2042) 
N[C@@H](Cc1(cccc(C(=O)O)c1C))C(=O)O

>  <INCHIKEY>  (2042) 
LNTRVTAJYIWVEJ-VIFPVBQESA-N

$$$$
Ala_pyrid2yl_5Me
     RDKit          2D

 13 13  0  0  0  0  0  0  0  0999 V2000
   -1.5766    1.6851    0.0000 N   0  0  0  0  0  0  0  0  0  0  0  0
   -2.0128    0.2500    0.0000 C   0  0  0  0  0  0  0  0  0  0  0  0
   -0.9880   -0.8454    0.0000 C   0  0  0  0  0  0  0  0  0  0  0  0
    0.4730   -0.5055    0.0000 C   0  0  0  0  0  0  0  0  0  0  0  0
    0.9092    0.9296    0.0000 C   0  0  0  0  0  0  0  0  0  0  0  0
    2.3702    1.2695    0.0000 C   0  0  0  0  0  0  0  0  0  0  0  0
    3.3950    0.1741    0.0000 C   0  0  0  0  0  0  0  0  0  0  0  0
    4.8560    0.5140    0.0000 C   0  0  0  0  0  0  0  0  0  0  0  0
    2.9588   -1.2611    0.0000 C   0  0  0  0  0  0  0  0  0  0  0  0
    1.4978   -1.6009    0.0000 N   0  0  0  0  0  0  0  0  0  0  0  0
   -3.4738   -0.0899    0.0000 C   0  0  0  0  0  0  0  0  0  0  0  0
   -3.9100   -1.5250    0.0000 O   0  0  0  0  0  0  0  0  0  0  0  0
   -4.4986    1.0055    0.0000 O   0  0  0  0  0  0  0  0  0  0  0  0
  2  1  1  1
  2  3  1  0
  3  4  1  0
  4  5  1  0
  5  6  2  0
  6  7  1  0
  7  8  1  0
  7  9  2  0
  9 10  1  0
  2 11  1  0
 11 12  2  0
 11 13  1  0
 10  4  2  0
M  END
>  <rName>  (2043) 
Ala_pyrid2yl_5Me

>  <PQ_SYMBOL>  (2043) 
Ala_pyrid2yl_5Me

>  <FULL_NAME>  (2043) 
(S)-2-amino-3-(5-methylpyridin-2-yl)propanoic acid

>  <IUPAC_CONDENSED>  (2043) 
Ala(pyrid-2-yl(5-Me))

>  <IUPAC>  (2043) 
(2S)-2-amino-3-(5-methylpyridin-2-yl)propanoic acid

>  <TYPE>  (2043) 
Backbone

>  <CLASS>  (2043) 
alpha

>  <ANALOG>  (2043) 
Phe

>  <MOL_WT>  (2043) 
180.20699999999997

>  <LOGP>  (2043) 
0.3444200000000001

>  <TPSA>  (2043) 
76.21

>  <POPULARITY>  (2043) 
3.8

>  <PROTECTED>  (2043) 
TRUE

>  <SMILES>  (2043) 
N[C@@H](Cc1(ccc(C)cn1))C(=O)O

>  <INCHIKEY>  (2043) 
KGYQCBBDLIEYEA-QMMMGPOBSA-N

$$$$
Phe_3NO2_4CO2H
     RDKit          2D

 18 18  0  0  0  0  0  0  0  0999 V2000
   -3.1302    1.7241    0.0000 N   0  0  0  0  0  0  0  0  0  0  0  0
   -3.4035    0.2492    0.0000 C   0  0  0  0  0  0  0  0  0  0  0  0
   -2.2628   -0.7249    0.0000 C   0  0  0  0  0  0  0  0  0  0  0  0
   -0.8489   -0.2241    0.0000 C   0  0  0  0  0  0  0  0  0  0  0  0
   -0.5756    1.2508    0.0000 C   0  0  0  0  0  0  0  0  0  0  0  0
    0.8383    1.7516    0.0000 C   0  0  0  0  0  0  0  0  0  0  0  0
    1.9790    0.7775    0.0000 C   0  0  0  0  0  0  0  0  0  0  0  0
    3.3929    1.2783    0.0000 C   0  0  0  0  0  0  0  0  0  0  0  0
    3.6661    2.7532    0.0000 O   0  0  0  0  0  0  0  0  0  0  0  0
    4.5336    0.3042    0.0000 O   0  0  0  0  0  0  0  0  0  0  0  0
    1.7057   -0.6974    0.0000 C   0  0  0  0  0  0  0  0  0  0  0  0
    0.2918   -1.1982    0.0000 C   0  0  0  0  0  0  0  0  0  0  0  0
    2.8464   -1.6715    0.0000 N   0  0  0  0  0  0  0  0  0  0  0  0
    4.2603   -1.1707    0.0000 O   0  0  0  0  0  0  0  0  0  0  0  0
    2.5732   -3.1464    0.0000 O   0  0  0  0  0  0  0  0  0  0  0  0
   -4.8174   -0.2517    0.0000 C   0  0  0  0  0  0  0  0  0  0  0  0
   -5.0907   -1.7266    0.0000 O   0  0  0  0  0  0  0  0  0  0  0  0
   -5.9581    0.7224    0.0000 O   0  0  0  0  0  0  0  0  0  0  0  0
  2  1  1  1
  2  3  1  0
  3  4  1  0
  4  5  1  0
  5  6  2  0
  6  7  1  0
  7  8  1  0
  8  9  2  0
  8 10  1  0
  7 11  2  0
 11 12  1  0
 11 13  1  0
 13 14  2  0
 13 15  1  0
  2 16  1  0
 16 17  2  0
 16 18  1  0
 12  4  2  0
M  CHG  2  13   1  15  -1
M  END
>  <rName>  (2044) 
Phe_3NO2_4CO2H

>  <PQ_SYMBOL>  (2044) 
Phe_3NO2_4CO2H

>  <FULL_NAME>  (2044) 
(S)-4-(2-amino-2-carboxyethyl)-2-nitrobenzoic acid

>  <IUPAC_CONDENSED>  (2044) 
Phe(3-NO2,4-CO2H)

>  <IUPAC>  (2044) 
4-((2S)-2-amino-3-hydroxy-3-oxopropyl)-2-nitrobenzene-1-carboxylic acid

>  <TYPE>  (2044) 
Backbone

>  <CLASS>  (2044) 
alpha

>  <ANALOG>  (2044) 
Phe

>  <MOL_WT>  (2044) 
254.19799999999998

>  <LOGP>  (2044) 
0.24739999999999973

>  <TPSA>  (2044) 
143.76

>  <POPULARITY>  (2044) 
2.4

>  <PROTECTED>  (2044) 
TRUE

>  <SMILES>  (2044) 
N[C@@H](Cc1(ccc(C(=O)O)c(c1)[N+](=O)[O-]))C(=O)O

>  <INCHIKEY>  (2044) 
RNUQYMVEKSTBCO-ZETCQYMHSA-N

$$$$
Phe_4piperazin1yl
     RDKit          2D

 18 19  0  0  0  0  0  0  0  0999 V2000
   -3.2769    1.7174    0.0000 N   0  0  0  0  0  0  0  0  0  0  0  0
   -3.8349    0.3251    0.0000 C   0  0  0  0  0  0  0  0  0  0  0  0
   -2.9082   -0.8544    0.0000 C   0  0  0  0  0  0  0  0  0  0  0  0
   -1.4234   -0.6415    0.0000 C   0  0  0  0  0  0  0  0  0  0  0  0
   -0.8653    0.7508    0.0000 C   0  0  0  0  0  0  0  0  0  0  0  0
    0.6195    0.9637    0.0000 C   0  0  0  0  0  0  0  0  0  0  0  0
    1.5463   -0.2158    0.0000 C   0  0  0  0  0  0  0  0  0  0  0  0
    0.9882   -1.6081    0.0000 C   0  0  0  0  0  0  0  0  0  0  0  0
   -0.4966   -1.8210    0.0000 C   0  0  0  0  0  0  0  0  0  0  0  0
    3.0311   -0.0029    0.0000 N   0  0  0  0  0  0  0  0  0  0  0  0
    3.9578   -1.1824    0.0000 C   0  0  0  0  0  0  0  0  0  0  0  0
    5.4427   -0.9695    0.0000 C   0  0  0  0  0  0  0  0  0  0  0  0
    6.0007    0.4228    0.0000 N   0  0  0  0  0  0  0  0  0  0  0  0
    5.0740    1.6023    0.0000 C   0  0  0  0  0  0  0  0  0  0  0  0
    3.5891    1.3894    0.0000 C   0  0  0  0  0  0  0  0  0  0  0  0
   -5.3198    0.1122    0.0000 C   0  0  0  0  0  0  0  0  0  0  0  0
   -5.8778   -1.2801    0.0000 O   0  0  0  0  0  0  0  0  0  0  0  0
   -6.2465    1.2917    0.0000 O   0  0  0  0  0  0  0  0  0  0  0  0
  2  1  1  1
  2  3  1  0
  3  4  1  0
  4  5  1  0
  5  6  2  0
  6  7  1  0
  7  8  2  0
  8  9  1  0
  7 10  1  0
 10 11  1  0
 11 12  1  0
 12 13  1  0
 13 14  1  0
 14 15  1  0
  2 16  1  0
 16 17  2  0
 16 18  1  0
  9  4  2  0
 15 10  1  0
M  END
>  <rName>  (2045) 
Phe_4piperazin1yl

>  <PQ_SYMBOL>  (2045) 
Phe_4piperazin1yl

>  <FULL_NAME>  (2045) 
(S)-2-amino-3-(4-(piperazin-1-yl)phenyl)propanoic acid

>  <IUPAC_CONDENSED>  (2045) 
Phe(piperazino)

>  <IUPAC>  (2045) 
(2S)-2-amino-3-(4-(piperazin-1-yl)phenyl)propanoic acid

>  <TYPE>  (2045) 
Backbone

>  <CLASS>  (2045) 
alpha

>  <ANALOG>  (2045) 
Phe

>  <MOL_WT>  (2045) 
249.3139999999999

>  <LOGP>  (2045) 
0.05059999999999992

>  <TPSA>  (2045) 
78.59

>  <POPULARITY>  (2045) 
5.2

>  <PROTECTED>  (2045) 
TRUE

>  <SMILES>  (2045) 
N[C@@H](Cc1(ccc(cc1)N2(CCNCC2)))C(=O)O

>  <INCHIKEY>  (2045) 
IIDQBUPOQMTSDY-LBPRGKRZSA-N

$$$$
Phe_2OMe_6NO2
     RDKit          2D

 17 17  0  0  0  0  0  0  0  0999 V2000
   -2.1422    1.2681    0.0000 N   0  0  0  0  0  0  0  0  0  0  0  0
   -1.9743   -0.2225    0.0000 C   0  0  0  0  0  0  0  0  0  0  0  0
   -0.5994   -0.8223    0.0000 C   0  0  0  0  0  0  0  0  0  0  0  0
    0.6075    0.0684    0.0000 C   0  0  0  0  0  0  0  0  0  0  0  0
    0.4395    1.5590    0.0000 C   0  0  0  0  0  0  0  0  0  0  0  0
   -0.9353    2.1588    0.0000 O   0  0  0  0  0  0  0  0  0  0  0  0
   -1.1033    3.6494    0.0000 C   0  0  0  0  0  0  0  0  0  0  0  0
    1.6464    2.4498    0.0000 C   0  0  0  0  0  0  0  0  0  0  0  0
    3.0213    1.8499    0.0000 C   0  0  0  0  0  0  0  0  0  0  0  0
    3.1892    0.3594    0.0000 C   0  0  0  0  0  0  0  0  0  0  0  0
    1.9823   -0.5314    0.0000 C   0  0  0  0  0  0  0  0  0  0  0  0
    2.1503   -2.0219    0.0000 N   0  0  0  0  0  0  0  0  0  0  0  0
    0.9434   -2.9127    0.0000 O   0  0  0  0  0  0  0  0  0  0  0  0
    3.5251   -2.6218    0.0000 O   0  0  0  0  0  0  0  0  0  0  0  0
   -3.1812   -1.1132    0.0000 C   0  0  0  0  0  0  0  0  0  0  0  0
   -3.0132   -2.6038    0.0000 O   0  0  0  0  0  0  0  0  0  0  0  0
   -4.5560   -0.5134    0.0000 O   0  0  0  0  0  0  0  0  0  0  0  0
  2  1  1  1
  2  3  1  0
  3  4  1  0
  4  5  2  0
  5  6  1  0
  6  7  1  0
  5  8  1  0
  8  9  2  0
  9 10  1  0
 10 11  2  0
 11 12  1  0
 12 13  2  0
 12 14  1  0
  2 15  1  0
 15 16  2  0
 15 17  1  0
 11  4  1  0
M  CHG  2  12   1  14  -1
M  END
>  <rName>  (2046) 
Phe_2OMe_6NO2

>  <PQ_SYMBOL>  (2046) 
Phe_2OMe_6NO2

>  <FULL_NAME>  (2046) 
(S)-2-amino-3-(2-methoxy-6-nitrophenyl)propanoic acid

>  <IUPAC_CONDENSED>  (2046) 
Phe(2-OMe,6-NO2)

>  <IUPAC>  (2046) 
(2S)-2-amino-3-(2-methoxy-6-nitrophenyl)propanoic acid

>  <TYPE>  (2046) 
Backbone

>  <CLASS>  (2046) 
alpha

>  <ANALOG>  (2046) 
Tyr

>  <MOL_WT>  (2046) 
240.21499999999997

>  <LOGP>  (2046) 
0.5578000000000001

>  <TPSA>  (2046) 
115.69000000000001

>  <POPULARITY>  (2046) 
2.7

>  <PROTECTED>  (2046) 
TRUE

>  <SMILES>  (2046) 
N[C@@H](Cc1(c(OC)cccc1[N+](=O)[O-]))C(=O)O

>  <INCHIKEY>  (2046) 
HDGUHYNXCFJPJO-ZETCQYMHSA-N

$$$$
Phe_2CN_4CF3
     RDKit          2D

 18 18  0  0  0  0  0  0  0  0999 V2000
   -2.4213    2.1647    0.0000 N   0  0  0  0  0  0  0  0  0  0  0  0
   -2.9526    0.7619    0.0000 C   0  0  0  0  0  0  0  0  0  0  0  0
   -2.0035   -0.3996    0.0000 C   0  0  0  0  0  0  0  0  0  0  0  0
   -0.5230   -0.1583    0.0000 C   0  0  0  0  0  0  0  0  0  0  0  0
    0.0083    1.2444    0.0000 C   0  0  0  0  0  0  0  0  0  0  0  0
    1.4888    1.4856    0.0000 C   0  0  0  0  0  0  0  0  0  0  0  0
    2.4379    0.3241    0.0000 C   0  0  0  0  0  0  0  0  0  0  0  0
    1.9066   -1.0786    0.0000 C   0  0  0  0  0  0  0  0  0  0  0  0
    0.4261   -1.3199    0.0000 C   0  0  0  0  0  0  0  0  0  0  0  0
   -0.1052   -2.7226    0.0000 C   0  0  0  0  0  0  0  0  0  0  0  0
   -0.6365   -4.1253    0.0000 N   0  0  0  0  0  0  0  0  0  0  0  0
    3.9184    0.5653    0.0000 C   0  0  0  0  0  0  0  0  0  0  0  0
    5.3989    0.8066    0.0000 F   0  0  0  0  0  0  0  0  0  0  0  0
    4.1596   -0.9151    0.0000 F   0  0  0  0  0  0  0  0  0  0  0  0
    3.6772    2.0458    0.0000 F   0  0  0  0  0  0  0  0  0  0  0  0
   -4.4331    0.5207    0.0000 C   0  0  0  0  0  0  0  0  0  0  0  0
   -4.9644   -0.8820    0.0000 O   0  0  0  0  0  0  0  0  0  0  0  0
   -5.3823    1.6822    0.0000 O   0  0  0  0  0  0  0  0  0  0  0  0
  2  1  1  1
  2  3  1  0
  3  4  1  0
  4  5  1  0
  5  6  2  0
  6  7  1  0
  7  8  2  0
  8  9  1  0
  9 10  1  0
 10 11  3  0
  7 12  1  0
 12 13  1  0
 12 14  1  0
 12 15  1  0
  2 16  1  0
 16 17  2  0
 16 18  1  0
  9  4  2  0
M  END
>  <rName>  (2047) 
Phe_2CN_4CF3

>  <PQ_SYMBOL>  (2047) 
Phe_2CN_4CF3

>  <FULL_NAME>  (2047) 
(S)-2-amino-3-(2-cyano-4-(trifluoromethyl)phenyl)propanoic acid

>  <IUPAC_CONDENSED>  (2047) 
Phe(2-CN,4-CF3)

>  <IUPAC>  (2047) 
(2S)-2-amino-3-(2-(nitrilomethyl)-4-(trifluoromethyl)phenyl)propanoic acid

>  <TYPE>  (2047) 
Backbone

>  <CLASS>  (2047) 
alpha

>  <ANALOG>  (2047) 
Phe

>  <MOL_WT>  (2047) 
258.1989999999999

>  <LOGP>  (2047) 
1.5314800000000002

>  <TPSA>  (2047) 
87.11

>  <POPULARITY>  (2047) 
2.4

>  <PROTECTED>  (2047) 
TRUE

>  <SMILES>  (2047) 
N[C@@H](Cc1(ccc(cc1C#N)C(F)(F)F))C(=O)O

>  <INCHIKEY>  (2047) 
SICRQCBHBSNJDP-VIFPVBQESA-N

$$$$
2Pal_5CO2H
     RDKit          2D

 15 15  0  0  0  0  0  0  0  0999 V2000
   -2.2547    1.6872    0.0000 N   0  0  0  0  0  0  0  0  0  0  0  0
   -2.7489    0.2709    0.0000 C   0  0  0  0  0  0  0  0  0  0  0  0
   -1.7696   -0.8652    0.0000 C   0  0  0  0  0  0  0  0  0  0  0  0
   -0.2959   -0.5852    0.0000 C   0  0  0  0  0  0  0  0  0  0  0  0
    0.1983    0.8311    0.0000 C   0  0  0  0  0  0  0  0  0  0  0  0
    1.6719    1.1111    0.0000 C   0  0  0  0  0  0  0  0  0  0  0  0
    2.6513   -0.0250    0.0000 C   0  0  0  0  0  0  0  0  0  0  0  0
    2.1570   -1.4413    0.0000 C   0  0  0  0  0  0  0  0  0  0  0  0
    0.6834   -1.7213    0.0000 N   0  0  0  0  0  0  0  0  0  0  0  0
    4.1249    0.2550    0.0000 C   0  0  0  0  0  0  0  0  0  0  0  0
    4.6192    1.6713    0.0000 O   0  0  0  0  0  0  0  0  0  0  0  0
    5.1043   -0.8811    0.0000 O   0  0  0  0  0  0  0  0  0  0  0  0
   -4.2225   -0.0091    0.0000 C   0  0  0  0  0  0  0  0  0  0  0  0
   -4.7168   -1.4254    0.0000 O   0  0  0  0  0  0  0  0  0  0  0  0
   -5.2019    1.1270    0.0000 O   0  0  0  0  0  0  0  0  0  0  0  0
  2  1  1  1
  2  3  1  0
  3  4  1  0
  4  5  1  0
  5  6  2  0
  6  7  1  0
  7  8  2  0
  8  9  1  0
  7 10  1  0
 10 11  2  0
 10 12  1  0
  2 13  1  0
 13 14  2  0
 13 15  1  0
  9  4  2  0
M  END
>  <rName>  (2048) 
2Pal_5CO2H

>  <PQ_SYMBOL>  (2048) 
2Pal_5CO2H

>  <FULL_NAME>  (2048) 
(S)-6-(2-amino-2-carboxyethyl)nicotinic acid

>  <IUPAC_CONDENSED>  (2048) 
2Pal(5-CO2H)

>  <IUPAC>  (2048) 
6-((2S)-2-amino-3-hydroxy-3-oxopropyl)pyridine-3-carboxylic acid

>  <TYPE>  (2048) 
Backbone

>  <CLASS>  (2048) 
alpha

>  <ANALOG>  (2048) 
Phe

>  <MOL_WT>  (2048) 
210.18899999999996

>  <LOGP>  (2048) 
-0.2658000000000001

>  <TPSA>  (2048) 
113.51

>  <POPULARITY>  (2048) 
2.8

>  <PROTECTED>  (2048) 
TRUE

>  <SMILES>  (2048) 
N[C@@H](Cc1(ccc(cn1)C(=O)O))C(=O)O

>  <INCHIKEY>  (2048) 
CBSMIRICWPPUPH-ZETCQYMHSA-N

$$$$
Phe_2Cl_4NH2_5CO2H
     RDKit          2D

 17 17  0  0  0  0  0  0  0  0999 V2000
    1.7999   -1.7667    0.0000 N   0  0  0  0  0  0  0  0  0  0  0  0
    2.5565   -0.4715    0.0000 C   0  0  0  0  0  0  0  0  0  0  0  0
    1.8131    0.8314    0.0000 C   0  0  0  0  0  0  0  0  0  0  0  0
    0.3131    0.8390    0.0000 C   0  0  0  0  0  0  0  0  0  0  0  0
   -0.4435   -0.4562    0.0000 C   0  0  0  0  0  0  0  0  0  0  0  0
   -1.9435   -0.4486    0.0000 C   0  0  0  0  0  0  0  0  0  0  0  0
   -2.7001   -1.7438    0.0000 C   0  0  0  0  0  0  0  0  0  0  0  0
   -1.9567   -3.0467    0.0000 O   0  0  0  0  0  0  0  0  0  0  0  0
   -4.2000   -1.7362    0.0000 O   0  0  0  0  0  0  0  0  0  0  0  0
   -2.6869    0.8542    0.0000 C   0  0  0  0  0  0  0  0  0  0  0  0
   -4.1869    0.8618    0.0000 N   0  0  0  0  0  0  0  0  0  0  0  0
   -1.9303    2.1494    0.0000 C   0  0  0  0  0  0  0  0  0  0  0  0
   -0.4303    2.1418    0.0000 C   0  0  0  0  0  0  0  0  0  0  0  0
    0.3263    3.4370    0.0000 Cl  0  0  0  0  0  0  0  0  0  0  0  0
    4.0564   -0.4791    0.0000 C   0  0  0  0  0  0  0  0  0  0  0  0
    4.8130    0.8161    0.0000 O   0  0  0  0  0  0  0  0  0  0  0  0
    4.7998   -1.7819    0.0000 O   0  0  0  0  0  0  0  0  0  0  0  0
  2  1  1  1
  2  3  1  0
  3  4  1  0
  4  5  1  0
  5  6  2  0
  6  7  1  0
  7  8  2  0
  7  9  1  0
  6 10  1  0
 10 11  1  0
 10 12  2  0
 12 13  1  0
 13 14  1  0
  2 15  1  0
 15 16  2  0
 15 17  1  0
 13  4  2  0
M  END
>  <rName>  (2049) 
Phe_2Cl_4NH2_5CO2H

>  <PQ_SYMBOL>  (2049) 
Phe_2Cl_4NH2_5CO2H

>  <FULL_NAME>  (2049) 
(S)-2-amino-5-(2-amino-2-carboxyethyl)-4-chlorobenzoic acid

>  <IUPAC_CONDENSED>  (2049) 
Phe(2-Cl,4-NH2,5-CO2H)

>  <IUPAC>  (2049) 
2-amino-5-((2S)-2-amino-3-hydroxy-3-oxopropyl)-4-chlorobenzene-1-carboxylic acid

>  <TYPE>  (2049) 
Backbone

>  <CLASS>  (2049) 
alpha

>  <ANALOG>  (2049) 
Phe

>  <MOL_WT>  (2049) 
258.66099999999994

>  <LOGP>  (2049) 
0.5748

>  <TPSA>  (2049) 
126.64

>  <POPULARITY>  (2049) 
2.2

>  <PROTECTED>  (2049) 
TRUE

>  <SMILES>  (2049) 
N[C@@H](Cc1(cc(C(=O)O)c(N)cc1Cl))C(=O)O

>  <INCHIKEY>  (2049) 
QDWNMPNYQFMDJQ-QMMMGPOBSA-N

$$$$
Trp_4Me_Aza
     RDKit          2D

 16 17  0  0  0  0  0  0  0  0999 V2000
   -2.7276   -1.8081    0.0000 N   0  0  0  0  0  0  0  0  0  0  0  0
   -2.6325   -0.3111    0.0000 C   0  0  0  0  0  0  0  0  0  0  0  0
   -1.2885    0.3550    0.0000 C   0  0  0  0  0  0  0  0  0  0  0  0
   -0.0397   -0.4758    0.0000 C   0  0  0  0  0  0  0  0  0  0  0  0
    0.0222   -1.9745    0.0000 N   0  0  0  0  0  0  0  0  0  0  0  0
    1.4667   -2.3788    0.0000 N   0  0  0  0  0  0  0  0  0  0  0  0
    2.2976   -1.1299    0.0000 C   0  0  0  0  0  0  0  0  0  0  0  0
    3.7816   -0.9117    0.0000 C   0  0  0  0  0  0  0  0  0  0  0  0
    4.3347    0.4826    0.0000 C   0  0  0  0  0  0  0  0  0  0  0  0
    3.4037    1.6587    0.0000 C   0  0  0  0  0  0  0  0  0  0  0  0
    1.9196    1.4405    0.0000 C   0  0  0  0  0  0  0  0  0  0  0  0
    0.9886    2.6166    0.0000 C   0  0  0  0  0  0  0  0  0  0  0  0
    1.3666    0.0462    0.0000 C   0  0  0  0  0  0  0  0  0  0  0  0
   -3.8814    0.5198    0.0000 C   0  0  0  0  0  0  0  0  0  0  0  0
   -3.7863    2.0167    0.0000 O   0  0  0  0  0  0  0  0  0  0  0  0
   -5.2254   -0.1464    0.0000 O   0  0  0  0  0  0  0  0  0  0  0  0
  2  1  1  6
  2  3  1  0
  3  4  1  0
  4  5  1  0
  5  6  1  0
  6  7  2  0
  7  8  1  0
  8  9  2  0
  9 10  1  0
 10 11  2  0
 11 12  1  0
 11 13  1  0
  2 14  1  0
 14 15  2  0
 14 16  1  0
 13  7  1  0
 13  4  2  0
M  END
>  <rName>  (2050) 
Trp_4Me_Aza

>  <PQ_SYMBOL>  (2050) 
Trp_4Me_Aza

>  <FULL_NAME>  (2050) 
(S)-2-amino-3-(4-methyl-2H-indazol-3-yl)propanoic acid

>  <IUPAC_CONDENSED>  (2050) 
Trp(4-Me,Aza)

>  <IUPAC>  (2050) 
(2S)-2-amino-3-(2-methyl-7,8-diazabicyclo[4.3.0]nona-1(9),2,4,6-tetraen-9-yl)propanoic acid

>  <TYPE>  (2050) 
Backbone

>  <CLASS>  (2050) 
alpha

>  <ANALOG>  (2050) 
Phe

>  <MOL_WT>  (2050) 
219.24399999999997

>  <LOGP>  (2050) 
0.8257199999999998

>  <TPSA>  (2050) 
92.00000000000001

>  <POPULARITY>  (2050) 
2.6

>  <PROTECTED>  (2050) 
TRUE

>  <SMILES>  (2050) 
N[C@@H](Cc2([nH]nc1(cccc(C)c12)))C(=O)O

>  <INCHIKEY>  (2050) 
PPSMVMLVNMWRQL-ZETCQYMHSA-N

$$$$
3-azaBCH3101S2S5R-2-CO2H
     RDKit          2D

  9 10  0  0  0  0  0  0  0  0999 V2000
   -0.2807    1.5601    0.0000 N   0  0  0  0  0  0  0  0  0  0  0  0
    0.3118    0.1821    0.0000 C   0  0  0  0  0  0  0  0  0  0  0  0
   -0.8156   -0.8072    0.0000 C   0  0  0  0  0  0  0  0  0  0  0  0
   -2.1242   -1.5405    0.0000 C   0  0  0  0  0  0  0  0  0  0  0  0
   -2.1050   -0.0407    0.0000 C   0  0  0  0  0  0  0  0  0  0  0  0
   -1.7743    1.4225    0.0000 C   0  0  0  0  0  0  0  0  0  0  0  0
    1.7749   -0.1485    0.0000 C   0  0  0  0  0  0  0  0  0  0  0  0
    2.7928    0.9532    0.0000 O   0  0  0  0  0  0  0  0  0  0  0  0
    2.2202   -1.5809    0.0000 O   0  0  0  0  0  0  0  0  0  0  0  0
  1  2  1  0
  2  3  1  0
  3  4  1  1
  5  4  1  1
  5  6  1  0
  2  7  1  6
  7  8  2  0
  7  9  1  0
  5  3  1  0
  6  1  1  0
M  END
>  <rName>  (2051) 
3-azaBCH3101S2S5R-2-CO2H

>  <PQ_SYMBOL>  (2051) 
3-azaBCH3101S2S5R-2-CO2H

>  <FULL_NAME>  (2051) 
(1S,2S,5R)-3-azabicyclo[3.1.0]hexane-2-carboxylic acid

>  <IUPAC_CONDENSED>  (2051) 
3-azaBCH[3.1.0](1S,2S,5R)-2-CO2H

>  <IUPAC>  (2051) 
(1S,2S,5R)-3-azabicyclo[3.1.0]hexane-2-carboxylic acid

>  <TYPE>  (2051) 
Backbone

>  <CLASS>  (2051) 
alpha

>  <ANALOG>  (2051) 
Pro

>  <MOL_WT>  (2051) 
127.14299999999999

>  <LOGP>  (2051) 
-0.3211000000000002

>  <TPSA>  (2051) 
49.33

>  <POPULARITY>  (2051) 
10.5

>  <PROTECTED>  (2051) 
TRUE

>  <SMILES>  (2051) 
N2[C@@H]([C@H]1(C[C@H]1C2))C(=O)O

>  <INCHIKEY>  (2051) 
JBDOTWVUXVXVDR-YUPRTTJUSA-N

$$$$
2-amino-Ac5c_1R_2R
     RDKit          2D

  9  9  0  0  0  0  0  0  0  0999 V2000
   -0.5115   -2.3139    0.0000 N   0  0  0  0  0  0  0  0  0  0  0  0
   -0.8624   -0.8555    0.0000 C   0  0  0  0  0  0  0  0  0  0  0  0
    0.1113    0.2855    0.0000 C   0  0  0  0  0  0  0  0  0  0  0  0
   -0.6730    1.5641    0.0000 C   0  0  0  0  0  0  0  0  0  0  0  0
   -2.1314    1.2133    0.0000 C   0  0  0  0  0  0  0  0  0  0  0  0
   -2.2485   -0.2821    0.0000 C   0  0  0  0  0  0  0  0  0  0  0  0
    1.6067    0.1685    0.0000 C   0  0  0  0  0  0  0  0  0  0  0  0
    2.4558    1.4051    0.0000 O   0  0  0  0  0  0  0  0  0  0  0  0
    2.2531   -1.1851    0.0000 O   0  0  0  0  0  0  0  0  0  0  0  0
  2  1  1  6
  2  3  1  0
  3  4  1  0
  4  5  1  0
  5  6  1  0
  3  7  1  1
  7  8  2  0
  7  9  1  0
  6  2  1  0
M  END
>  <rName>  (2052) 
2-amino-Ac5c_1R_2R

>  <PQ_SYMBOL>  (2052) 
2-amino-Ac5c_1R_2R

>  <FULL_NAME>  (2052) 
(1R,2R)-2-aminocyclopentane-1-carboxylic acid

>  <IUPAC_CONDENSED>  (2052) 
2-amino-Ac5c(1R,2R)

>  <IUPAC>  (2052) 
(1R,2R)-2-aminocyclopentanecarboxylic acid

>  <TYPE>  (2052) 
Backbone

>  <CLASS>  (2052) 
beta

>  <ANALOG>  (2052) 
Val

>  <MOL_WT>  (2052) 
129.15900000000002

>  <LOGP>  (2052) 
0.19839999999999985

>  <TPSA>  (2052) 
63.32000000000001

>  <POPULARITY>  (2052) 
8.3

>  <PROTECTED>  (2052) 
TRUE

>  <SMILES>  (2052) 
N[C@H]1[C@@H](CCC1)C(=O)O

>  <INCHIKEY>  (2052) 
JWYOAMOZLZXDER-RFZPGFLSSA-N

$$$$
bAla_2ROH_3Rnaphth1yl
     RDKit          2D

 17 18  0  0  0  0  0  0  0  0999 V2000
   -1.1137    1.8354    0.0000 N   0  0  0  0  0  0  0  0  0  0  0  0
   -1.2044    0.3381    0.0000 C   0  0  0  0  0  0  0  0  0  0  0  0
    0.0469   -0.4890    0.0000 C   0  0  0  0  0  0  0  0  0  0  0  0
   -0.0437   -1.9863    0.0000 C   0  0  0  0  0  0  0  0  0  0  0  0
    1.2076   -2.8134    0.0000 C   0  0  0  0  0  0  0  0  0  0  0  0
    2.5496   -2.1433    0.0000 C   0  0  0  0  0  0  0  0  0  0  0  0
    2.6403   -0.6461    0.0000 C   0  0  0  0  0  0  0  0  0  0  0  0
    3.9823    0.0241    0.0000 C   0  0  0  0  0  0  0  0  0  0  0  0
    4.0729    1.5213    0.0000 C   0  0  0  0  0  0  0  0  0  0  0  0
    2.8216    2.3485    0.0000 C   0  0  0  0  0  0  0  0  0  0  0  0
    1.4796    1.6783    0.0000 C   0  0  0  0  0  0  0  0  0  0  0  0
    1.3889    0.1811    0.0000 C   0  0  0  0  0  0  0  0  0  0  0  0
   -2.5464   -0.3320    0.0000 C   0  0  0  0  0  0  0  0  0  0  0  0
   -2.6370   -1.8293    0.0000 O   0  0  0  0  0  0  0  0  0  0  0  0
   -3.7977    0.4951    0.0000 C   0  0  0  0  0  0  0  0  0  0  0  0
   -3.7071    1.9924    0.0000 O   0  0  0  0  0  0  0  0  0  0  0  0
   -5.1397   -0.1750    0.0000 O   0  0  0  0  0  0  0  0  0  0  0  0
  2  1  1  6
  2  3  1  0
  3  4  2  0
  4  5  1  0
  5  6  2  0
  6  7  1  0
  7  8  2  0
  8  9  1  0
  9 10  2  0
 10 11  1  0
 11 12  2  0
  2 13  1  0
 13 14  1  1
 13 15  1  0
 15 16  2  0
 15 17  1  0
 12  7  1  0
 12  3  1  0
M  END
>  <rName>  (2053) 
bAla_2ROH_3Rnaphth1yl

>  <PQ_SYMBOL>  (2053) 
bAla_2ROH_3Rnaphth1yl

>  <FULL_NAME>  (2053) 
(2R,3R)-3-amino-2-hydroxy-3-(naphthalen-1-yl)propanoic acid

>  <IUPAC_CONDENSED>  (2053) 
bAla(2R-OH,3R-naphth-1-yl)

>  <IUPAC>  (2053) 
(2R,3R)-3-amino-2-hydroxy-3-(naphthalen-1-yl)propanoic acid

>  <TYPE>  (2053) 
Backbone

>  <CLASS>  (2053) 
beta

>  <ANALOG>  (2053) 
X

>  <MOL_WT>  (2053) 
231.25099999999998

>  <LOGP>  (2053) 
1.2851000000000001

>  <TPSA>  (2053) 
83.55

>  <POPULARITY>  (2053) 
3.3

>  <PROTECTED>  (2053) 
TRUE

>  <SMILES>  (2053) 
N[C@H](c2(cccc1(ccccc12)))[C@@H](O)C(=O)O

>  <INCHIKEY>  (2053) 
JWGUPWBKDSQFQO-VXGBXAGGSA-N

$$$$
Phe_2NH2_45diMe
     RDKit          2D

 15 15  0  0  0  0  0  0  0  0999 V2000
   -1.7432    1.8004    0.0000 N   0  0  0  0  0  0  0  0  0  0  0  0
   -2.2534    0.3899    0.0000 C   0  0  0  0  0  0  0  0  0  0  0  0
   -1.2870   -0.7573    0.0000 C   0  0  0  0  0  0  0  0  0  0  0  0
    0.1897   -0.4940    0.0000 C   0  0  0  0  0  0  0  0  0  0  0  0
    0.7000    0.9165    0.0000 C   0  0  0  0  0  0  0  0  0  0  0  0
    2.1767    1.1799    0.0000 C   0  0  0  0  0  0  0  0  0  0  0  0
    2.6869    2.5904    0.0000 C   0  0  0  0  0  0  0  0  0  0  0  0
    3.1431    0.0327    0.0000 C   0  0  0  0  0  0  0  0  0  0  0  0
    4.6198    0.2961    0.0000 C   0  0  0  0  0  0  0  0  0  0  0  0
    2.6328   -1.3778    0.0000 C   0  0  0  0  0  0  0  0  0  0  0  0
    1.1561   -1.6412    0.0000 C   0  0  0  0  0  0  0  0  0  0  0  0
    0.6458   -3.0517    0.0000 N   0  0  0  0  0  0  0  0  0  0  0  0
   -3.7301    0.1265    0.0000 C   0  0  0  0  0  0  0  0  0  0  0  0
   -4.2404   -1.2840    0.0000 O   0  0  0  0  0  0  0  0  0  0  0  0
   -4.6966    1.2737    0.0000 O   0  0  0  0  0  0  0  0  0  0  0  0
  2  1  1  1
  2  3  1  0
  3  4  1  0
  4  5  1  0
  5  6  2  0
  6  7  1  0
  6  8  1  0
  8  9  1  0
  8 10  2  0
 10 11  1  0
 11 12  1  0
  2 13  1  0
 13 14  2  0
 13 15  1  0
 11  4  2  0
M  END
>  <rName>  (2054) 
Phe_2NH2_45diMe

>  <PQ_SYMBOL>  (2054) 
Phe_2NH2_45diMe

>  <FULL_NAME>  (2054) 
(S)-2-amino-3-(2-amino-4,5-dimethylphenyl)propanoic acid

>  <IUPAC_CONDENSED>  (2054) 
Phe(2-NH2,4,5-diMe)

>  <IUPAC>  (2054) 
(2S)-2-amino-3-(2-amino-4,5-dimethylphenyl)propanoic acid

>  <TYPE>  (2054) 
Backbone

>  <CLASS>  (2054) 
alpha

>  <ANALOG>  (2054) 
Phe

>  <MOL_WT>  (2054) 
208.26099999999997

>  <LOGP>  (2054) 
0.8400399999999999

>  <TPSA>  (2054) 
89.34

>  <POPULARITY>  (2054) 
3

>  <PROTECTED>  (2054) 
TRUE

>  <SMILES>  (2054) 
N[C@@H](Cc1(cc(C)c(C)cc1N))C(=O)O

>  <INCHIKEY>  (2054) 
GYURMXIHJKDLFC-JTQLQIEISA-N

$$$$
Phe_2OCHF2
     RDKit          2D

 16 16  0  0  0  0  0  0  0  0999 V2000
   -2.9416    1.4600    0.0000 N   0  0  0  0  0  0  0  0  0  0  0  0
   -2.5896    0.0018    0.0000 C   0  0  0  0  0  0  0  0  0  0  0  0
   -1.1509   -0.4224    0.0000 C   0  0  0  0  0  0  0  0  0  0  0  0
   -0.0641    0.6114    0.0000 C   0  0  0  0  0  0  0  0  0  0  0  0
   -0.4160    2.0695    0.0000 C   0  0  0  0  0  0  0  0  0  0  0  0
    0.6708    3.1034    0.0000 C   0  0  0  0  0  0  0  0  0  0  0  0
    2.1095    2.6791    0.0000 C   0  0  0  0  0  0  0  0  0  0  0  0
    2.4615    1.2210    0.0000 C   0  0  0  0  0  0  0  0  0  0  0  0
    1.3747    0.1871    0.0000 C   0  0  0  0  0  0  0  0  0  0  0  0
    1.7266   -1.2710    0.0000 O   0  0  0  0  0  0  0  0  0  0  0  0
    3.1654   -1.6953    0.0000 C   0  0  0  0  0  0  0  0  0  0  0  0
    3.5173   -3.1534    0.0000 F   0  0  0  0  0  0  0  0  0  0  0  0
    4.2522   -0.6614    0.0000 F   0  0  0  0  0  0  0  0  0  0  0  0
   -3.6764   -1.0320    0.0000 C   0  0  0  0  0  0  0  0  0  0  0  0
   -3.3245   -2.4902    0.0000 O   0  0  0  0  0  0  0  0  0  0  0  0
   -5.1152   -0.6078    0.0000 O   0  0  0  0  0  0  0  0  0  0  0  0
  2  1  1  1
  2  3  1  0
  3  4  1  0
  4  5  2  0
  5  6  1  0
  6  7  2  0
  7  8  1  0
  8  9  2  0
  9 10  1  0
 10 11  1  0
 11 12  1  0
 11 13  1  0
  2 14  1  0
 14 15  2  0
 14 16  1  0
  9  4  1  0
M  END
>  <rName>  (2055) 
Phe_2OCHF2

>  <PQ_SYMBOL>  (2055) 
Phe_2OCHF2

>  <FULL_NAME>  (2055) 
(S)-2-amino-3-(2-(difluoromethoxy)phenyl)propanoic acid

>  <IUPAC_CONDENSED>  (2055) 
Phe(2-OCHF2)

>  <IUPAC>  (2055) 
(2S)-2-amino-3-(2-((difluoromethyl)oxy)phenyl)propanoic acid

>  <TYPE>  (2055) 
Backbone

>  <CLASS>  (2055) 
alpha

>  <ANALOG>  (2055) 
Tyr

>  <MOL_WT>  (2055) 
231.19799999999995

>  <LOGP>  (2055) 
1.2424000000000002

>  <TPSA>  (2055) 
72.55

>  <POPULARITY>  (2055) 
3.5

>  <PROTECTED>  (2055) 
TRUE

>  <SMILES>  (2055) 
N[C@@H](Cc1(ccccc1OC(F)F))C(=O)O

>  <INCHIKEY>  (2055) 
BKVQCKOCBSJQSZ-ZETCQYMHSA-N

$$$$
Phe_3dioxolan2yl_4F
     RDKit          2D

 18 19  0  0  0  0  0  0  0  0999 V2000
   -3.6315    1.4568    0.0000 N   0  0  0  0  0  0  0  0  0  0  0  0
   -3.5569   -0.0413    0.0000 C   0  0  0  0  0  0  0  0  0  0  0  0
   -2.2222   -0.7258    0.0000 C   0  0  0  0  0  0  0  0  0  0  0  0
   -0.9620    0.0878    0.0000 C   0  0  0  0  0  0  0  0  0  0  0  0
   -1.0366    1.5860    0.0000 C   0  0  0  0  0  0  0  0  0  0  0  0
    0.2236    2.3996    0.0000 C   0  0  0  0  0  0  0  0  0  0  0  0
    1.5583    1.7151    0.0000 C   0  0  0  0  0  0  0  0  0  0  0  0
    2.8184    2.5288    0.0000 F   0  0  0  0  0  0  0  0  0  0  0  0
    1.6328    0.2170    0.0000 C   0  0  0  0  0  0  0  0  0  0  0  0
    0.3727   -0.5967    0.0000 C   0  0  0  0  0  0  0  0  0  0  0  0
    2.9676   -0.4675    0.0000 C   0  0  0  0  0  0  0  0  0  0  0  0
    4.3058    0.2100    0.0000 O   0  0  0  0  0  0  0  0  0  0  0  0
    5.3637   -0.8535    0.0000 C   0  0  0  0  0  0  0  0  0  0  0  0
    4.6792   -2.1882    0.0000 C   0  0  0  0  0  0  0  0  0  0  0  0
    3.1983   -1.9497    0.0000 O   0  0  0  0  0  0  0  0  0  0  0  0
   -4.8170   -0.8550    0.0000 C   0  0  0  0  0  0  0  0  0  0  0  0
   -4.7425   -2.3531    0.0000 O   0  0  0  0  0  0  0  0  0  0  0  0
   -6.1518   -0.1705    0.0000 O   0  0  0  0  0  0  0  0  0  0  0  0
  2  1  1  1
  2  3  1  0
  3  4  1  0
  4  5  1  0
  5  6  2  0
  6  7  1  0
  7  8  1  0
  7  9  2  0
  9 10  1  0
  9 11  1  0
 11 12  1  0
 12 13  1  0
 13 14  1  0
 14 15  1  0
  2 16  1  0
 16 17  2  0
 16 18  1  0
 10  4  2  0
 15 11  1  0
M  END
>  <rName>  (2056) 
Phe_3dioxolan2yl_4F

>  <PQ_SYMBOL>  (2056) 
Phe_3dioxolan2yl_4F

>  <FULL_NAME>  (2056) 
(S)-3-(3-(1,3-dioxolan-2-yl)-4-fluorophenyl)-2-aminopropanoic acid

>  <IUPAC_CONDENSED>  (2056) 
Phe(3-dioxolan-2-yl,4-F)

>  <IUPAC>  (2056) 
(2S)-2-amino-3-(3-(1,3-dioxolan-2-yl)-4-fluorophenyl)propanoic acid

>  <TYPE>  (2056) 
Backbone

>  <CLASS>  (2056) 
alpha

>  <ANALOG>  (2056) 
Phe

>  <MOL_WT>  (2056) 
255.24499999999995

>  <LOGP>  (2056) 
0.8255000000000001

>  <TPSA>  (2056) 
81.78

>  <POPULARITY>  (2056) 
2.2

>  <PROTECTED>  (2056) 
TRUE

>  <SMILES>  (2056) 
N[C@@H](Cc1(ccc(F)c(c1)C2(OCCO2)))C(=O)O

>  <INCHIKEY>  (2056) 
DGZXCMKXBRQXKR-JTQLQIEISA-N

$$$$
Phe_3OMe_4NH2
     RDKit          2D

 15 15  0  0  0  0  0  0  0  0999 V2000
   -2.4309    1.6735    0.0000 N   0  0  0  0  0  0  0  0  0  0  0  0
   -2.5936    0.1823    0.0000 C   0  0  0  0  0  0  0  0  0  0  0  0
   -1.3836   -0.7041    0.0000 C   0  0  0  0  0  0  0  0  0  0  0  0
   -0.0108   -0.0994    0.0000 C   0  0  0  0  0  0  0  0  0  0  0  0
    0.1518    1.3917    0.0000 C   0  0  0  0  0  0  0  0  0  0  0  0
    1.5245    1.9964    0.0000 C   0  0  0  0  0  0  0  0  0  0  0  0
    2.7346    1.1100    0.0000 C   0  0  0  0  0  0  0  0  0  0  0  0
    4.1073    1.7147    0.0000 N   0  0  0  0  0  0  0  0  0  0  0  0
    2.5719   -0.3812    0.0000 C   0  0  0  0  0  0  0  0  0  0  0  0
    3.7820   -1.2676    0.0000 O   0  0  0  0  0  0  0  0  0  0  0  0
    3.6193   -2.7588    0.0000 C   0  0  0  0  0  0  0  0  0  0  0  0
    1.1992   -0.9859    0.0000 C   0  0  0  0  0  0  0  0  0  0  0  0
   -3.9663   -0.4224    0.0000 C   0  0  0  0  0  0  0  0  0  0  0  0
   -4.1290   -1.9135    0.0000 O   0  0  0  0  0  0  0  0  0  0  0  0
   -5.1764    0.4641    0.0000 O   0  0  0  0  0  0  0  0  0  0  0  0
  2  1  1  1
  2  3  1  0
  3  4  1  0
  4  5  1  0
  5  6  2  0
  6  7  1  0
  7  8  1  0
  7  9  2  0
  9 10  1  0
 10 11  1  0
  9 12  1  0
  2 13  1  0
 13 14  2  0
 13 15  1  0
 12  4  2  0
M  END
>  <rName>  (2057) 
Phe_3OMe_4NH2

>  <PQ_SYMBOL>  (2057) 
Phe_3OMe_4NH2

>  <FULL_NAME>  (2057) 
(S)-2-amino-3-(4-amino-3-methoxyphenyl)propanoic acid

>  <IUPAC_CONDENSED>  (2057) 
Phe(3-OMe,4-NH2)

>  <IUPAC>  (2057) 
(2S)-2-amino-3-(4-amino-3-methoxyphenyl)propanoic acid

>  <TYPE>  (2057) 
Backbone

>  <CLASS>  (2057) 
alpha

>  <ANALOG>  (2057) 
Tyr

>  <MOL_WT>  (2057) 
210.23299999999998

>  <LOGP>  (2057) 
0.23179999999999995

>  <TPSA>  (2057) 
98.57000000000001

>  <POPULARITY>  (2057) 
4.4

>  <PROTECTED>  (2057) 
TRUE

>  <SMILES>  (2057) 
N[C@@H](Cc1(ccc(N)c(OC)c1))C(=O)O

>  <INCHIKEY>  (2057) 
KLAAHRYLQZIIGB-QMMMGPOBSA-N

$$$$
Phe_2CF3_5NH2
     RDKit          2D

 17 17  0  0  0  0  0  0  0  0999 V2000
   -2.0855    2.0050    0.0000 N   0  0  0  0  0  0  0  0  0  0  0  0
   -2.2497    0.5140    0.0000 C   0  0  0  0  0  0  0  0  0  0  0  0
   -1.0405   -0.3736    0.0000 C   0  0  0  0  0  0  0  0  0  0  0  0
    0.3328    0.2297    0.0000 C   0  0  0  0  0  0  0  0  0  0  0  0
    0.4970    1.7206    0.0000 C   0  0  0  0  0  0  0  0  0  0  0  0
    1.8703    2.3240    0.0000 C   0  0  0  0  0  0  0  0  0  0  0  0
    2.0345    3.8149    0.0000 N   0  0  0  0  0  0  0  0  0  0  0  0
    3.0794    1.4363    0.0000 C   0  0  0  0  0  0  0  0  0  0  0  0
    2.9153   -0.0547    0.0000 C   0  0  0  0  0  0  0  0  0  0  0  0
    1.5419   -0.6580    0.0000 C   0  0  0  0  0  0  0  0  0  0  0  0
    1.3778   -2.1490    0.0000 C   0  0  0  0  0  0  0  0  0  0  0  0
    1.2136   -3.6400    0.0000 F   0  0  0  0  0  0  0  0  0  0  0  0
    2.8687   -2.3132    0.0000 F   0  0  0  0  0  0  0  0  0  0  0  0
   -0.1132   -1.9848    0.0000 F   0  0  0  0  0  0  0  0  0  0  0  0
   -3.6230   -0.0893    0.0000 C   0  0  0  0  0  0  0  0  0  0  0  0
   -3.7872   -1.5803    0.0000 O   0  0  0  0  0  0  0  0  0  0  0  0
   -4.8321    0.7984    0.0000 O   0  0  0  0  0  0  0  0  0  0  0  0
  2  1  1  1
  2  3  1  0
  3  4  1  0
  4  5  1  0
  5  6  2  0
  6  7  1  0
  6  8  1  0
  8  9  2  0
  9 10  1  0
 10 11  1  0
 11 12  1  0
 11 13  1  0
 11 14  1  0
  2 15  1  0
 15 16  2  0
 15 17  1  0
 10  4  2  0
M  END
>  <rName>  (2058) 
Phe_2CF3_5NH2

>  <PQ_SYMBOL>  (2058) 
Phe_2CF3_5NH2

>  <FULL_NAME>  (2058) 
(S)-2-amino-3-(5-amino-2-(trifluoromethyl)phenyl)propanoic acid

>  <IUPAC_CONDENSED>  (2058) 
Phe(2-CF3,5-NH2)

>  <IUPAC>  (2058) 
(2S)-2-amino-3-(5-amino-2-(trifluoromethyl)phenyl)propanoic acid

>  <TYPE>  (2058) 
Backbone

>  <CLASS>  (2058) 
alpha

>  <ANALOG>  (2058) 
Phe

>  <MOL_WT>  (2058) 
248.20399999999995

>  <LOGP>  (2058) 
1.242

>  <TPSA>  (2058) 
89.34

>  <POPULARITY>  (2058) 
2.3

>  <PROTECTED>  (2058) 
TRUE

>  <SMILES>  (2058) 
N[C@@H](Cc1(cc(N)ccc1C(F)(F)F))C(=O)O

>  <INCHIKEY>  (2058) 
SMBXSNYNBPTNKX-QMMMGPOBSA-N

$$$$
3Pal_5CN_6OMe
     RDKit          2D

 16 16  0  0  0  0  0  0  0  0999 V2000
   -2.6466    1.6745    0.0000 N   0  0  0  0  0  0  0  0  0  0  0  0
   -2.9398    0.2035    0.0000 C   0  0  0  0  0  0  0  0  0  0  0  0
   -1.8124   -0.7859    0.0000 C   0  0  0  0  0  0  0  0  0  0  0  0
   -0.3918   -0.3043    0.0000 C   0  0  0  0  0  0  0  0  0  0  0  0
   -0.0986    1.1668    0.0000 C   0  0  0  0  0  0  0  0  0  0  0  0
    1.3219    1.6484    0.0000 N   0  0  0  0  0  0  0  0  0  0  0  0
    2.4493    0.6590    0.0000 C   0  0  0  0  0  0  0  0  0  0  0  0
    3.8699    1.1407    0.0000 O   0  0  0  0  0  0  0  0  0  0  0  0
    4.1631    2.6117    0.0000 C   0  0  0  0  0  0  0  0  0  0  0  0
    2.1562   -0.8121    0.0000 C   0  0  0  0  0  0  0  0  0  0  0  0
    3.2836   -1.8015    0.0000 C   0  0  0  0  0  0  0  0  0  0  0  0
    4.4110   -2.7909    0.0000 N   0  0  0  0  0  0  0  0  0  0  0  0
    0.7356   -1.2937    0.0000 C   0  0  0  0  0  0  0  0  0  0  0  0
   -4.3603   -0.2782    0.0000 C   0  0  0  0  0  0  0  0  0  0  0  0
   -4.6535   -1.7492    0.0000 O   0  0  0  0  0  0  0  0  0  0  0  0
   -5.4877    0.7112    0.0000 O   0  0  0  0  0  0  0  0  0  0  0  0
  2  1  1  1
  2  3  1  0
  3  4  1  0
  4  5  1  0
  5  6  2  0
  6  7  1  0
  7  8  1  0
  8  9  1  0
  7 10  2  0
 10 11  1  0
 11 12  3  0
 10 13  1  0
  2 14  1  0
 14 15  2  0
 14 16  1  0
 13  4  2  0
M  END
>  <rName>  (2059) 
3Pal_5CN_6OMe

>  <PQ_SYMBOL>  (2059) 
3Pal_5CN_6OMe

>  <FULL_NAME>  (2059) 
(S)-2-amino-3-(5-cyano-6-methoxypyridin-3-yl)propanoic acid

>  <IUPAC_CONDENSED>  (2059) 
3Pal(5-CN,6-OMe)

>  <IUPAC>  (2059) 
(2S)-2-amino-3-(6-methoxy-5-(nitrilomethyl)pyridin-3-yl)propanoic acid

>  <TYPE>  (2059) 
Backbone

>  <CLASS>  (2059) 
alpha

>  <ANALOG>  (2059) 
Phe

>  <MOL_WT>  (2059) 
221.21599999999998

>  <LOGP>  (2059) 
-0.08372000000000007

>  <TPSA>  (2059) 
109.23

>  <POPULARITY>  (2059) 
2.2

>  <PROTECTED>  (2059) 
TRUE

>  <SMILES>  (2059) 
N[C@@H](Cc1(cnc(OC)c(C#N)c1))C(=O)O

>  <INCHIKEY>  (2059) 
VUBMAFIAVNEGMY-QMMMGPOBSA-N

$$$$
2Pal_3NO2_6OMe
     RDKit          2D

 17 17  0  0  0  0  0  0  0  0999 V2000
   -1.4771    2.3022    0.0000 N   0  0  0  0  0  0  0  0  0  0  0  0
   -2.1654    0.9694    0.0000 C   0  0  0  0  0  0  0  0  0  0  0  0
   -1.3554   -0.2930    0.0000 C   0  0  0  0  0  0  0  0  0  0  0  0
    0.1429   -0.2228    0.0000 C   0  0  0  0  0  0  0  0  0  0  0  0
    0.8313    1.1100    0.0000 N   0  0  0  0  0  0  0  0  0  0  0  0
    2.3296    1.1802    0.0000 C   0  0  0  0  0  0  0  0  0  0  0  0
    3.0180    2.5130    0.0000 O   0  0  0  0  0  0  0  0  0  0  0  0
    4.5163    2.5832    0.0000 C   0  0  0  0  0  0  0  0  0  0  0  0
    3.1397   -0.0823    0.0000 C   0  0  0  0  0  0  0  0  0  0  0  0
    2.4513   -1.4150    0.0000 C   0  0  0  0  0  0  0  0  0  0  0  0
    0.9530   -1.4853    0.0000 C   0  0  0  0  0  0  0  0  0  0  0  0
    0.2646   -2.8180    0.0000 N   0  0  0  0  0  0  0  0  0  0  0  0
    1.0747   -4.0805    0.0000 O   0  0  0  0  0  0  0  0  0  0  0  0
   -1.2337   -2.8883    0.0000 O   0  0  0  0  0  0  0  0  0  0  0  0
   -3.6638    0.8992    0.0000 C   0  0  0  0  0  0  0  0  0  0  0  0
   -4.3521   -0.4336    0.0000 O   0  0  0  0  0  0  0  0  0  0  0  0
   -4.4738    2.1617    0.0000 O   0  0  0  0  0  0  0  0  0  0  0  0
  2  1  1  1
  2  3  1  0
  3  4  1  0
  4  5  1  0
  5  6  2  0
  6  7  1  0
  7  8  1  0
  6  9  1  0
  9 10  2  0
 10 11  1  0
 11 12  1  0
 12 13  2  0
 12 14  1  0
  2 15  1  0
 15 16  2  0
 15 17  1  0
 11  4  2  0
M  CHG  2  12   1  14  -1
M  END
>  <rName>  (2060) 
2Pal_3NO2_6OMe

>  <PQ_SYMBOL>  (2060) 
2Pal_3NO2_6OMe

>  <FULL_NAME>  (2060) 
(S)-2-amino-3-(6-methoxy-3-nitropyridin-2-yl)propanoic acid

>  <IUPAC_CONDENSED>  (2060) 
2Pal(3-NO2,6-OMe)

>  <IUPAC>  (2060) 
(2S)-2-amino-3-(6-methoxy-3-nitropyridin-2-yl)propanoic acid

>  <TYPE>  (2060) 
Backbone

>  <CLASS>  (2060) 
alpha

>  <ANALOG>  (2060) 
Phe

>  <MOL_WT>  (2060) 
241.20299999999997

>  <LOGP>  (2060) 
-0.047200000000000186

>  <TPSA>  (2060) 
128.57999999999998

>  <POPULARITY>  (2060) 
2.2

>  <PROTECTED>  (2060) 
TRUE

>  <SMILES>  (2060) 
N[C@@H](Cc1(nc(OC)ccc1[N+](=O)[O-]))C(=O)O

>  <INCHIKEY>  (2060) 
UTVNIPLKQNCQFP-YFKPBYRVSA-N

$$$$
3Pal_4CO2H
     RDKit          2D

 15 15  0  0  0  0  0  0  0  0999 V2000
   -2.0511    1.9295    0.0000 N   0  0  0  0  0  0  0  0  0  0  0  0
   -2.0725    0.4296    0.0000 C   0  0  0  0  0  0  0  0  0  0  0  0
   -0.7843   -0.3388    0.0000 C   0  0  0  0  0  0  0  0  0  0  0  0
    0.5253    0.3925    0.0000 C   0  0  0  0  0  0  0  0  0  0  0  0
    0.5467    1.8924    0.0000 C   0  0  0  0  0  0  0  0  0  0  0  0
    1.8563    2.6238    0.0000 N   0  0  0  0  0  0  0  0  0  0  0  0
    3.1445    1.8553    0.0000 C   0  0  0  0  0  0  0  0  0  0  0  0
    3.1231    0.3555    0.0000 C   0  0  0  0  0  0  0  0  0  0  0  0
    1.8135   -0.3759    0.0000 C   0  0  0  0  0  0  0  0  0  0  0  0
    1.7921   -1.8758    0.0000 C   0  0  0  0  0  0  0  0  0  0  0  0
    0.4825   -2.6072    0.0000 O   0  0  0  0  0  0  0  0  0  0  0  0
    3.0803   -2.6442    0.0000 O   0  0  0  0  0  0  0  0  0  0  0  0
   -3.3821   -0.3018    0.0000 C   0  0  0  0  0  0  0  0  0  0  0  0
   -3.4036   -1.8016    0.0000 O   0  0  0  0  0  0  0  0  0  0  0  0
   -4.6704    0.4667    0.0000 O   0  0  0  0  0  0  0  0  0  0  0  0
  2  1  1  1
  2  3  1  0
  3  4  1  0
  4  5  1  0
  5  6  2  0
  6  7  1  0
  7  8  2  0
  8  9  1  0
  9 10  1  0
 10 11  2  0
 10 12  1  0
  2 13  1  0
 13 14  2  0
 13 15  1  0
  9  4  2  0
M  END
>  <rName>  (2061) 
3Pal_4CO2H

>  <PQ_SYMBOL>  (2061) 
3Pal_4CO2H

>  <FULL_NAME>  (2061) 
(S)-3-(2-amino-2-carboxyethyl)isonicotinic acid

>  <IUPAC_CONDENSED>  (2061) 
3Pal(4-CO2H)

>  <IUPAC>  (2061) 
3-((2S)-2-amino-3-hydroxy-3-oxopropyl)pyridine-4-carboxylic acid

>  <TYPE>  (2061) 
Backbone

>  <CLASS>  (2061) 
alpha

>  <ANALOG>  (2061) 
Phe

>  <MOL_WT>  (2061) 
210.18899999999996

>  <LOGP>  (2061) 
-0.2658000000000001

>  <TPSA>  (2061) 
113.51

>  <POPULARITY>  (2061) 
2.5

>  <PROTECTED>  (2061) 
TRUE

>  <SMILES>  (2061) 
N[C@@H](Cc1(cnccc1C(=O)O))C(=O)O

>  <INCHIKEY>  (2061) 
DZARCKLHJFEXDG-ZETCQYMHSA-N

$$$$
Phe_2Cl_5Me
     RDKit          2D

 14 14  0  0  0  0  0  0  0  0999 V2000
   -1.4552    1.7882    0.0000 N   0  0  0  0  0  0  0  0  0  0  0  0
   -1.9325    0.3661    0.0000 C   0  0  0  0  0  0  0  0  0  0  0  0
   -0.9397   -0.7583    0.0000 C   0  0  0  0  0  0  0  0  0  0  0  0
    0.5305   -0.4606    0.0000 C   0  0  0  0  0  0  0  0  0  0  0  0
    1.0078    0.9614    0.0000 C   0  0  0  0  0  0  0  0  0  0  0  0
    2.4780    1.2591    0.0000 C   0  0  0  0  0  0  0  0  0  0  0  0
    2.9553    2.6811    0.0000 C   0  0  0  0  0  0  0  0  0  0  0  0
    3.4709    0.1347    0.0000 C   0  0  0  0  0  0  0  0  0  0  0  0
    2.9935   -1.2874    0.0000 C   0  0  0  0  0  0  0  0  0  0  0  0
    1.5234   -1.5850    0.0000 C   0  0  0  0  0  0  0  0  0  0  0  0
    1.0461   -3.0070    0.0000 Cl  0  0  0  0  0  0  0  0  0  0  0  0
   -3.4027    0.0685    0.0000 C   0  0  0  0  0  0  0  0  0  0  0  0
   -3.8800   -1.3536    0.0000 O   0  0  0  0  0  0  0  0  0  0  0  0
   -4.3955    1.1929    0.0000 O   0  0  0  0  0  0  0  0  0  0  0  0
  2  1  1  1
  2  3  1  0
  3  4  1  0
  4  5  1  0
  5  6  2  0
  6  7  1  0
  6  8  1  0
  8  9  2  0
  9 10  1  0
 10 11  1  0
  2 12  1  0
 12 13  2  0
 12 14  1  0
 10  4  2  0
M  END
>  <rName>  (2062) 
Phe_2Cl_5Me

>  <PQ_SYMBOL>  (2062) 
Phe_2Cl_5Me

>  <FULL_NAME>  (2062) 
(S)-2-amino-3-(2-chloro-5-methylphenyl)propanoic acid

>  <IUPAC_CONDENSED>  (2062) 
Phe(2-Cl,5-Me)

>  <IUPAC>  (2062) 
(2S)-2-amino-3-(2-chloro-5-methylphenyl)propanoic acid

>  <TYPE>  (2062) 
Backbone

>  <CLASS>  (2062) 
alpha

>  <ANALOG>  (2062) 
Phe

>  <MOL_WT>  (2062) 
213.66399999999996

>  <LOGP>  (2062) 
1.6028200000000001

>  <TPSA>  (2062) 
63.32000000000001

>  <POPULARITY>  (2062) 
3.2

>  <PROTECTED>  (2062) 
TRUE

>  <SMILES>  (2062) 
N[C@@H](Cc1(cc(C)ccc1Cl))C(=O)O

>  <INCHIKEY>  (2062) 
XRAMSSIKOIODOJ-VIFPVBQESA-N

$$$$
Phe_2NH2_5CN
     RDKit          2D

 15 15  0  0  0  0  0  0  0  0999 V2000
    1.3277   -1.8350    0.0000 N   0  0  0  0  0  0  0  0  0  0  0  0
    2.0935   -0.5452    0.0000 C   0  0  0  0  0  0  0  0  0  0  0  0
    1.3594    0.7629    0.0000 C   0  0  0  0  0  0  0  0  0  0  0  0
   -0.1405    0.7812    0.0000 C   0  0  0  0  0  0  0  0  0  0  0  0
   -0.9063   -0.5086    0.0000 C   0  0  0  0  0  0  0  0  0  0  0  0
   -2.4062   -0.4903    0.0000 C   0  0  0  0  0  0  0  0  0  0  0  0
   -3.1719   -1.7801    0.0000 C   0  0  0  0  0  0  0  0  0  0  0  0
   -3.9377   -3.0699    0.0000 N   0  0  0  0  0  0  0  0  0  0  0  0
   -3.1403    0.8178    0.0000 C   0  0  0  0  0  0  0  0  0  0  0  0
   -2.3745    2.1076    0.0000 C   0  0  0  0  0  0  0  0  0  0  0  0
   -0.8746    2.0893    0.0000 C   0  0  0  0  0  0  0  0  0  0  0  0
   -0.1088    3.3791    0.0000 N   0  0  0  0  0  0  0  0  0  0  0  0
    3.5934   -0.5635    0.0000 C   0  0  0  0  0  0  0  0  0  0  0  0
    4.3592    0.7263    0.0000 O   0  0  0  0  0  0  0  0  0  0  0  0
    4.3275   -1.8716    0.0000 O   0  0  0  0  0  0  0  0  0  0  0  0
  2  1  1  1
  2  3  1  0
  3  4  1  0
  4  5  1  0
  5  6  2  0
  6  7  1  0
  7  8  3  0
  6  9  1  0
  9 10  2  0
 10 11  1  0
 11 12  1  0
  2 13  1  0
 13 14  2  0
 13 15  1  0
 11  4  2  0
M  END
>  <rName>  (2063) 
Phe_2NH2_5CN

>  <PQ_SYMBOL>  (2063) 
Phe_2NH2_5CN

>  <FULL_NAME>  (2063) 
(S)-2-amino-3-(2-amino-5-cyanophenyl)propanoic acid

>  <IUPAC_CONDENSED>  (2063) 
Phe(2-NH2,5-CN)

>  <IUPAC>  (2063) 
(2S)-2-amino-3-(2-amino-5-(nitrilomethyl)phenyl)propanoic acid

>  <TYPE>  (2063) 
Backbone

>  <CLASS>  (2063) 
alpha

>  <ANALOG>  (2063) 
Phe

>  <MOL_WT>  (2063) 
205.21699999999998

>  <LOGP>  (2063) 
0.09487999999999991

>  <TPSA>  (2063) 
113.13000000000001

>  <POPULARITY>  (2063) 
2.8

>  <PROTECTED>  (2063) 
TRUE

>  <SMILES>  (2063) 
N[C@@H](Cc1(cc(C#N)ccc1N))C(=O)O

>  <INCHIKEY>  (2063) 
VUXLQLGTQIWNFI-VIFPVBQESA-N

$$$$
Phe_3CO2H_4Cl
     RDKit          2D

 16 16  0  0  0  0  0  0  0  0999 V2000
   -2.7936    1.6481    0.0000 N   0  0  0  0  0  0  0  0  0  0  0  0
   -2.9203    0.1535    0.0000 C   0  0  0  0  0  0  0  0  0  0  0  0
   -1.6893   -0.7036    0.0000 C   0  0  0  0  0  0  0  0  0  0  0  0
   -0.3315   -0.0660    0.0000 C   0  0  0  0  0  0  0  0  0  0  0  0
   -0.2048    1.4287    0.0000 C   0  0  0  0  0  0  0  0  0  0  0  0
    1.1530    2.0662    0.0000 C   0  0  0  0  0  0  0  0  0  0  0  0
    2.3840    1.2092    0.0000 C   0  0  0  0  0  0  0  0  0  0  0  0
    3.7417    1.8468    0.0000 Cl  0  0  0  0  0  0  0  0  0  0  0  0
    2.2573   -0.2855    0.0000 C   0  0  0  0  0  0  0  0  0  0  0  0
    0.8995   -0.9230    0.0000 C   0  0  0  0  0  0  0  0  0  0  0  0
    3.4883   -1.1425    0.0000 C   0  0  0  0  0  0  0  0  0  0  0  0
    4.8461   -0.5049    0.0000 O   0  0  0  0  0  0  0  0  0  0  0  0
    3.3616   -2.6372    0.0000 O   0  0  0  0  0  0  0  0  0  0  0  0
   -4.2781   -0.4841    0.0000 C   0  0  0  0  0  0  0  0  0  0  0  0
   -4.4048   -1.9787    0.0000 O   0  0  0  0  0  0  0  0  0  0  0  0
   -5.5091    0.3730    0.0000 O   0  0  0  0  0  0  0  0  0  0  0  0
  2  1  1  1
  2  3  1  0
  3  4  1  0
  4  5  1  0
  5  6  2  0
  6  7  1  0
  7  8  1  0
  7  9  2  0
  9 10  1  0
  9 11  1  0
 11 12  2  0
 11 13  1  0
  2 14  1  0
 14 15  2  0
 14 16  1  0
 10  4  2  0
M  END
>  <rName>  (2064) 
Phe_3CO2H_4Cl

>  <PQ_SYMBOL>  (2064) 
Phe_3CO2H_4Cl

>  <FULL_NAME>  (2064) 
(S)-5-(2-amino-2-carboxyethyl)-2-chlorobenzoic acid

>  <IUPAC_CONDENSED>  (2064) 
Phe(3-CO2H,4-Cl)

>  <IUPAC>  (2064) 
5-((2S)-2-amino-3-hydroxy-3-oxopropyl)-2-chlorobenzene-1-carboxylic acid

>  <TYPE>  (2064) 
Backbone

>  <CLASS>  (2064) 
alpha

>  <ANALOG>  (2064) 
Phe

>  <MOL_WT>  (2064) 
243.646

>  <LOGP>  (2064) 
0.9926000000000001

>  <TPSA>  (2064) 
100.62000000000002

>  <POPULARITY>  (2064) 
3.2

>  <PROTECTED>  (2064) 
TRUE

>  <SMILES>  (2064) 
N[C@@H](Cc1(ccc(Cl)c(c1)C(=O)O))C(=O)O

>  <INCHIKEY>  (2064) 
CZQFEVBWZSZLCJ-QMMMGPOBSA-N

$$$$
3Pal_2F_6Me
     RDKit          2D

 14 14  0  0  0  0  0  0  0  0999 V2000
   -1.7174    1.8436    0.0000 N   0  0  0  0  0  0  0  0  0  0  0  0
   -2.1036    0.3942    0.0000 C   0  0  0  0  0  0  0  0  0  0  0  0
   -1.0414   -0.6650    0.0000 C   0  0  0  0  0  0  0  0  0  0  0  0
    0.4069   -0.2747    0.0000 C   0  0  0  0  0  0  0  0  0  0  0  0
    0.7931    1.1747    0.0000 C   0  0  0  0  0  0  0  0  0  0  0  0
    2.2415    1.5649    0.0000 C   0  0  0  0  0  0  0  0  0  0  0  0
    3.3036    0.5057    0.0000 C   0  0  0  0  0  0  0  0  0  0  0  0
    4.7520    0.8960    0.0000 C   0  0  0  0  0  0  0  0  0  0  0  0
    2.9174   -0.9437    0.0000 N   0  0  0  0  0  0  0  0  0  0  0  0
    1.4691   -1.3339    0.0000 C   0  0  0  0  0  0  0  0  0  0  0  0
    1.0829   -2.7834    0.0000 F   0  0  0  0  0  0  0  0  0  0  0  0
   -3.5519    0.0039    0.0000 C   0  0  0  0  0  0  0  0  0  0  0  0
   -3.9381   -1.4455    0.0000 O   0  0  0  0  0  0  0  0  0  0  0  0
   -4.6140    1.0631    0.0000 O   0  0  0  0  0  0  0  0  0  0  0  0
  2  1  1  1
  2  3  1  0
  3  4  1  0
  4  5  1  0
  5  6  2  0
  6  7  1  0
  7  8  1  0
  7  9  2  0
  9 10  1  0
 10 11  1  0
  2 12  1  0
 12 13  2  0
 12 14  1  0
 10  4  2  0
M  END
>  <rName>  (2065) 
3Pal_2F_6Me

>  <PQ_SYMBOL>  (2065) 
3Pal_2F_6Me

>  <FULL_NAME>  (2065) 
(S)-2-amino-3-(2-fluoro-6-methylpyridin-3-yl)propanoic acid

>  <IUPAC_CONDENSED>  (2065) 
3Pal(2-F,6-Me)

>  <IUPAC>  (2065) 
(2S)-2-amino-3-(2-fluoro-6-methylpyridin-3-yl)propanoic acid

>  <TYPE>  (2065) 
Backbone

>  <CLASS>  (2065) 
alpha

>  <ANALOG>  (2065) 
Phe

>  <MOL_WT>  (2065) 
198.19699999999997

>  <LOGP>  (2065) 
0.4835199999999999

>  <TPSA>  (2065) 
76.21

>  <POPULARITY>  (2065) 
2.5

>  <PROTECTED>  (2065) 
TRUE

>  <SMILES>  (2065) 
N[C@@H](Cc1(ccc(C)nc1F))C(=O)O

>  <INCHIKEY>  (2065) 
XWRABTWEQNXYTG-ZETCQYMHSA-N

$$$$
Ala_23dihydrobenzodioxin6yl
     RDKit          2D

 16 17  0  0  0  0  0  0  0  0999 V2000
   -2.0722    1.6358    0.0000 N   0  0  0  0  0  0  0  0  0  0  0  0
   -2.7778    0.3121    0.0000 C   0  0  0  0  0  0  0  0  0  0  0  0
   -1.9842   -0.9608    0.0000 C   0  0  0  0  0  0  0  0  0  0  0  0
   -0.4851   -0.9100    0.0000 C   0  0  0  0  0  0  0  0  0  0  0  0
    0.3084   -2.1829    0.0000 C   0  0  0  0  0  0  0  0  0  0  0  0
    1.8076   -2.1322    0.0000 C   0  0  0  0  0  0  0  0  0  0  0  0
    2.5132   -0.8085    0.0000 C   0  0  0  0  0  0  0  0  0  0  0  0
    4.0123   -0.7577    0.0000 O   0  0  0  0  0  0  0  0  0  0  0  0
    4.7179    0.5659    0.0000 C   0  0  0  0  0  0  0  0  0  0  0  0
    3.9244    1.8388    0.0000 C   0  0  0  0  0  0  0  0  0  0  0  0
    2.4253    1.7881    0.0000 O   0  0  0  0  0  0  0  0  0  0  0  0
    1.7196    0.4644    0.0000 C   0  0  0  0  0  0  0  0  0  0  0  0
    0.2205    0.4136    0.0000 C   0  0  0  0  0  0  0  0  0  0  0  0
   -4.2769    0.2614    0.0000 C   0  0  0  0  0  0  0  0  0  0  0  0
   -4.9825   -1.0623    0.0000 O   0  0  0  0  0  0  0  0  0  0  0  0
   -5.0704    1.5343    0.0000 O   0  0  0  0  0  0  0  0  0  0  0  0
  2  1  1  1
  2  3  1  0
  3  4  1  0
  4  5  1  0
  5  6  2  0
  6  7  1  0
  7  8  1  0
  8  9  1  0
  9 10  1  0
 10 11  1  0
 11 12  1  0
 12 13  1  0
  2 14  1  0
 14 15  2  0
 14 16  1  0
 12  7  2  0
 13  4  2  0
M  END
>  <rName>  (2066) 
Ala_23dihydrobenzodioxin6yl

>  <PQ_SYMBOL>  (2066) 
Ala_23dihydrobenzodioxin6yl

>  <FULL_NAME>  (2066) 
(S)-2-amino-3-(2,3-dihydrobenzo[b][1,4]dioxin-6-yl)propanoic acid

>  <IUPAC_CONDENSED>  (2066) 
Ala(2,3-dihydrobenzodioxin-6-yl)

>  <IUPAC>  (2066) 
(2S)-2-amino-3-(2,5-dioxabicyclo[4.4.0]deca-1(10),6,8-trien-8-yl)propanoic acid

>  <TYPE>  (2066) 
Backbone

>  <CLASS>  (2066) 
alpha

>  <ANALOG>  (2066) 
Tyr

>  <MOL_WT>  (2066) 
223.22799999999995

>  <LOGP>  (2066) 
0.41219999999999984

>  <TPSA>  (2066) 
81.78

>  <POPULARITY>  (2066) 
6.6

>  <PROTECTED>  (2066) 
TRUE

>  <SMILES>  (2066) 
N[C@@H](Cc2(ccc1(OCCOc1c2)))C(=O)O

>  <INCHIKEY>  (2066) 
HPGGFMVTHJHFTK-QMMMGPOBSA-N

$$$$
Dab_N3
     RDKit          2D

 10  9  0  0  0  0  0  0  0  0999 V2000
   -1.2340    1.8694    0.0000 N   0  0  0  0  0  0  0  0  0  0  0  0
   -1.3962    0.3782    0.0000 C   0  0  0  0  0  0  0  0  0  0  0  0
   -0.1859   -0.5079    0.0000 C   0  0  0  0  0  0  0  0  0  0  0  0
    1.1866    0.0973    0.0000 C   0  0  0  0  0  0  0  0  0  0  0  0
    2.3969   -0.7888    0.0000 N   0  0  0  0  0  0  0  0  0  0  0  0
    3.7695   -0.1837    0.0000 N   0  0  0  0  0  0  0  0  0  0  0  0
    5.1420    0.4214    0.0000 N   0  0  0  0  0  0  0  0  0  0  0  0
   -2.7688   -0.2269    0.0000 C   0  0  0  0  0  0  0  0  0  0  0  0
   -2.9310   -1.7181    0.0000 O   0  0  0  0  0  0  0  0  0  0  0  0
   -3.9791    0.6591    0.0000 O   0  0  0  0  0  0  0  0  0  0  0  0
  2  1  1  1
  2  3  1  0
  3  4  1  0
  4  5  1  0
  5  6  2  0
  6  7  2  0
  2  8  1  0
  8  9  2  0
  8 10  1  0
M  CHG  2   6   1   7  -1
M  END
>  <rName>  (2067) 
Dab_N3

>  <PQ_SYMBOL>  (2067) 
Dab_N3

>  <FULL_NAME>  (2067) 
(S)-2-amino-4-azidobutanoic acid

>  <IUPAC_CONDENSED>  (2067) 
Dab(N3)

>  <IUPAC>  (2067) 
(2S)-2-amino-4-azidobutanoic acid

>  <TYPE>  (2067) 
Backbone

>  <CLASS>  (2067) 
alpha

>  <ANALOG>  (2067) 
X

>  <MOL_WT>  (2067) 
144.13400000000001

>  <LOGP>  (2067) 
0.09869999999999973

>  <TPSA>  (2067) 
112.08

>  <POPULARITY>  (2067) 
7.9

>  <PROTECTED>  (2067) 
TRUE

>  <SMILES>  (2067) 
N[C@@H](CCN=[N+]=[N-])C(=O)O

>  <INCHIKEY>  (2067) 
NNWQLZWAZSJGLY-VKHMYHEASA-N

$$$$
4Pal_2Cl_3CO2H
     RDKit          2D

 16 16  0  0  0  0  0  0  0  0999 V2000
   -2.3721    1.9001    0.0000 N   0  0  0  0  0  0  0  0  0  0  0  0
   -2.3583    0.4002    0.0000 C   0  0  0  0  0  0  0  0  0  0  0  0
   -1.0524   -0.3378    0.0000 C   0  0  0  0  0  0  0  0  0  0  0  0
    0.2397    0.4241    0.0000 C   0  0  0  0  0  0  0  0  0  0  0  0
    0.2259    1.9240    0.0000 C   0  0  0  0  0  0  0  0  0  0  0  0
    1.5180    2.6860    0.0000 C   0  0  0  0  0  0  0  0  0  0  0  0
    2.8238    1.9479    0.0000 N   0  0  0  0  0  0  0  0  0  0  0  0
    2.8376    0.4480    0.0000 C   0  0  0  0  0  0  0  0  0  0  0  0
    4.1435   -0.2900    0.0000 Cl  0  0  0  0  0  0  0  0  0  0  0  0
    1.5456   -0.3139    0.0000 C   0  0  0  0  0  0  0  0  0  0  0  0
    1.5594   -1.8139    0.0000 C   0  0  0  0  0  0  0  0  0  0  0  0
    0.2673   -2.5758    0.0000 O   0  0  0  0  0  0  0  0  0  0  0  0
    2.8653   -2.5519    0.0000 O   0  0  0  0  0  0  0  0  0  0  0  0
   -3.6504   -0.3617    0.0000 C   0  0  0  0  0  0  0  0  0  0  0  0
   -3.6366   -1.8617    0.0000 O   0  0  0  0  0  0  0  0  0  0  0  0
   -4.9563    0.3763    0.0000 O   0  0  0  0  0  0  0  0  0  0  0  0
  2  1  1  1
  2  3  1  0
  3  4  1  0
  4  5  1  0
  5  6  2  0
  6  7  1  0
  7  8  2  0
  8  9  1  0
  8 10  1  0
 10 11  1  0
 11 12  2  0
 11 13  1  0
  2 14  1  0
 14 15  2  0
 14 16  1  0
 10  4  2  0
M  END
>  <rName>  (2068) 
4Pal_2Cl_3CO2H

>  <PQ_SYMBOL>  (2068) 
4Pal_2Cl_3CO2H

>  <FULL_NAME>  (2068) 
(S)-4-(2-amino-2-carboxyethyl)-2-chloronicotinic acid

>  <IUPAC_CONDENSED>  (2068) 
4Pal(2-Cl,3-CO2H)

>  <IUPAC>  (2068) 
4-((2S)-2-amino-3-hydroxy-3-oxopropyl)-2-chloropyridine-3-carboxylic acid

>  <TYPE>  (2068) 
Backbone

>  <CLASS>  (2068) 
alpha

>  <ANALOG>  (2068) 
Phe

>  <MOL_WT>  (2068) 
244.634

>  <LOGP>  (2068) 
0.38760000000000006

>  <TPSA>  (2068) 
113.51

>  <POPULARITY>  (2068) 
2.2

>  <PROTECTED>  (2068) 
TRUE

>  <SMILES>  (2068) 
N[C@@H](Cc1(ccnc(Cl)c1C(=O)O))C(=O)O

>  <INCHIKEY>  (2068) 
WVRNWHJUAQFPOZ-YFKPBYRVSA-N

$$$$
Ala_15naphthyridinyl
     RDKit          2D

 16 17  0  0  0  0  0  0  0  0999 V2000
   -2.0722    1.6358    0.0000 N   0  0  0  0  0  0  0  0  0  0  0  0
   -2.7778    0.3121    0.0000 C   0  0  0  0  0  0  0  0  0  0  0  0
   -1.9842   -0.9608    0.0000 C   0  0  0  0  0  0  0  0  0  0  0  0
   -0.4851   -0.9100    0.0000 C   0  0  0  0  0  0  0  0  0  0  0  0
    0.3084   -2.1829    0.0000 C   0  0  0  0  0  0  0  0  0  0  0  0
    1.8076   -2.1322    0.0000 N   0  0  0  0  0  0  0  0  0  0  0  0
    2.5132   -0.8085    0.0000 C   0  0  0  0  0  0  0  0  0  0  0  0
    4.0123   -0.7577    0.0000 C   0  0  0  0  0  0  0  0  0  0  0  0
    4.7179    0.5659    0.0000 C   0  0  0  0  0  0  0  0  0  0  0  0
    3.9244    1.8388    0.0000 C   0  0  0  0  0  0  0  0  0  0  0  0
    2.4253    1.7881    0.0000 N   0  0  0  0  0  0  0  0  0  0  0  0
    1.7196    0.4644    0.0000 C   0  0  0  0  0  0  0  0  0  0  0  0
    0.2205    0.4136    0.0000 C   0  0  0  0  0  0  0  0  0  0  0  0
   -4.2769    0.2614    0.0000 C   0  0  0  0  0  0  0  0  0  0  0  0
   -4.9825   -1.0623    0.0000 O   0  0  0  0  0  0  0  0  0  0  0  0
   -5.0704    1.5343    0.0000 O   0  0  0  0  0  0  0  0  0  0  0  0
  2  1  1  1
  2  3  1  0
  3  4  1  0
  4  5  1  0
  5  6  2  0
  6  7  1  0
  7  8  2  0
  8  9  1  0
  9 10  2  0
 10 11  1  0
 11 12  2  0
 12 13  1  0
  2 14  1  0
 14 15  2  0
 14 16  1  0
 12  7  1  0
 13  4  2  0
M  END
>  <rName>  (2069) 
Ala_15naphthyridinyl

>  <PQ_SYMBOL>  (2069) 
Ala_15naphthyridinyl

>  <FULL_NAME>  (2069) 
(S)-2-amino-3-(1,5-naphthyridin-3-yl)propanoic acid

>  <IUPAC_CONDENSED>  (2069) 
Ala(1,5-naphthyridinyl)

>  <IUPAC>  (2069) 
(2S)-2-amino-3-(2,7-diazabicyclo[4.4.0]deca-1,3,5,7,9-pentaen-4-yl)propanoic acid

>  <TYPE>  (2069) 
Backbone

>  <CLASS>  (2069) 
alpha

>  <ANALOG>  (2069) 
Phe

>  <MOL_WT>  (2069) 
217.22799999999998

>  <LOGP>  (2069) 
0.5842

>  <TPSA>  (2069) 
89.10000000000001

>  <POPULARITY>  (2069) 
2.4

>  <PROTECTED>  (2069) 
TRUE

>  <SMILES>  (2069) 
N[C@@H](Cc2(cnc1(cccnc1c2)))C(=O)O

>  <INCHIKEY>  (2069) 
PCOKBVVBDZEYDY-QMMMGPOBSA-N

$$$$
Phe_2OMe_5Ac
     RDKit          2D

 17 17  0  0  0  0  0  0  0  0999 V2000
    1.5479   -2.0183    0.0000 N   0  0  0  0  0  0  0  0  0  0  0  0
    2.3239   -0.7347    0.0000 C   0  0  0  0  0  0  0  0  0  0  0  0
    1.6002    0.5792    0.0000 C   0  0  0  0  0  0  0  0  0  0  0  0
    0.1005    0.6094    0.0000 C   0  0  0  0  0  0  0  0  0  0  0  0
   -0.6755   -0.6743    0.0000 C   0  0  0  0  0  0  0  0  0  0  0  0
   -2.1752   -0.6441    0.0000 C   0  0  0  0  0  0  0  0  0  0  0  0
   -2.8989    0.6698    0.0000 C   0  0  0  0  0  0  0  0  0  0  0  0
   -2.1229    1.9535    0.0000 C   0  0  0  0  0  0  0  0  0  0  0  0
   -0.6232    1.9233    0.0000 C   0  0  0  0  0  0  0  0  0  0  0  0
    0.1528    3.2070    0.0000 O   0  0  0  0  0  0  0  0  0  0  0  0
   -0.5709    4.5208    0.0000 C   0  0  0  0  0  0  0  0  0  0  0  0
   -2.9512   -1.9278    0.0000 C   0  0  0  0  0  0  0  0  0  0  0  0
   -2.2275   -3.2416    0.0000 O   0  0  0  0  0  0  0  0  0  0  0  0
   -4.4509   -1.8976    0.0000 C   0  0  0  0  0  0  0  0  0  0  0  0
    3.8236   -0.7648    0.0000 C   0  0  0  0  0  0  0  0  0  0  0  0
    4.5996    0.5188    0.0000 O   0  0  0  0  0  0  0  0  0  0  0  0
    4.5473   -2.0787    0.0000 O   0  0  0  0  0  0  0  0  0  0  0  0
  2  1  1  1
  2  3  1  0
  3  4  1  0
  4  5  1  0
  5  6  2  0
  6  7  1  0
  7  8  2  0
  8  9  1  0
  9 10  1  0
 10 11  1  0
  6 12  1  0
 12 13  2  0
 12 14  1  0
  2 15  1  0
 15 16  2  0
 15 17  1  0
  9  4  2  0
M  END
>  <rName>  (2070) 
Phe_2OMe_5Ac

>  <PQ_SYMBOL>  (2070) 
Phe_2OMe_5Ac

>  <FULL_NAME>  (2070) 
(S)-3-(5-acetyl-2-methoxyphenyl)-2-aminopropanoic acid

>  <IUPAC_CONDENSED>  (2070) 
Phe(2-OMe,5-Ac)

>  <IUPAC>  (2070) 
(2S)-3-(5-(acetyl)-2-methoxyphenyl)-2-aminopropanoic acid

>  <TYPE>  (2070) 
Backbone

>  <CLASS>  (2070) 
alpha

>  <ANALOG>  (2070) 
Tyr

>  <MOL_WT>  (2070) 
237.25499999999994

>  <LOGP>  (2070) 
0.8521999999999998

>  <TPSA>  (2070) 
89.62

>  <POPULARITY>  (2070) 
2.9

>  <PROTECTED>  (2070) 
TRUE

>  <SMILES>  (2070) 
N[C@@H](Cc1(cc(ccc1OC)C(=O)C))C(=O)O

>  <INCHIKEY>  (2070) 
YUVCAIOWQHLTOB-JTQLQIEISA-N

$$$$
Phe_2Me_5NH2
     RDKit          2D

 14 14  0  0  0  0  0  0  0  0999 V2000
   -1.4552    1.7882    0.0000 N   0  0  0  0  0  0  0  0  0  0  0  0
   -1.9325    0.3661    0.0000 C   0  0  0  0  0  0  0  0  0  0  0  0
   -0.9397   -0.7583    0.0000 C   0  0  0  0  0  0  0  0  0  0  0  0
    0.5305   -0.4606    0.0000 C   0  0  0  0  0  0  0  0  0  0  0  0
    1.0078    0.9614    0.0000 C   0  0  0  0  0  0  0  0  0  0  0  0
    2.4780    1.2591    0.0000 C   0  0  0  0  0  0  0  0  0  0  0  0
    2.9553    2.6811    0.0000 N   0  0  0  0  0  0  0  0  0  0  0  0
    3.4709    0.1347    0.0000 C   0  0  0  0  0  0  0  0  0  0  0  0
    2.9935   -1.2874    0.0000 C   0  0  0  0  0  0  0  0  0  0  0  0
    1.5234   -1.5850    0.0000 C   0  0  0  0  0  0  0  0  0  0  0  0
    1.0461   -3.0070    0.0000 C   0  0  0  0  0  0  0  0  0  0  0  0
   -3.4027    0.0685    0.0000 C   0  0  0  0  0  0  0  0  0  0  0  0
   -3.8800   -1.3536    0.0000 O   0  0  0  0  0  0  0  0  0  0  0  0
   -4.3955    1.1929    0.0000 O   0  0  0  0  0  0  0  0  0  0  0  0
  2  1  1  1
  2  3  1  0
  3  4  1  0
  4  5  1  0
  5  6  2  0
  6  7  1  0
  6  8  1  0
  8  9  2  0
  9 10  1  0
 10 11  1  0
  2 12  1  0
 12 13  2  0
 12 14  1  0
 10  4  2  0
M  END
>  <rName>  (2071) 
Phe_2Me_5NH2

>  <PQ_SYMBOL>  (2071) 
Phe_2Me_5NH2

>  <FULL_NAME>  (2071) 
(S)-2-amino-3-(5-amino-2-methylphenyl)propanoic acid

>  <IUPAC_CONDENSED>  (2071) 
Phe(2-Me,5-NH2)

>  <IUPAC>  (2071) 
(2S)-2-amino-3-(5-amino-2-methylphenyl)propanoic acid

>  <TYPE>  (2071) 
Backbone

>  <CLASS>  (2071) 
alpha

>  <ANALOG>  (2071) 
Phe

>  <MOL_WT>  (2071) 
194.23399999999998

>  <LOGP>  (2071) 
0.5316199999999995

>  <TPSA>  (2071) 
89.34

>  <POPULARITY>  (2071) 
4.9

>  <PROTECTED>  (2071) 
TRUE

>  <SMILES>  (2071) 
N[C@@H](Cc1(cc(N)ccc1C))C(=O)O

>  <INCHIKEY>  (2071) 
XIQZLXAKQBWHGM-VIFPVBQESA-N

$$$$
Phe_2Cl_5CF3
     RDKit          2D

 17 17  0  0  0  0  0  0  0  0999 V2000
    1.5288   -1.7884    0.0000 N   0  0  0  0  0  0  0  0  0  0  0  0
    2.4204   -0.5821    0.0000 C   0  0  0  0  0  0  0  0  0  0  0  0
    1.8216    0.7932    0.0000 C   0  0  0  0  0  0  0  0  0  0  0  0
    0.3311    0.9622    0.0000 C   0  0  0  0  0  0  0  0  0  0  0  0
   -0.5605   -0.2441    0.0000 C   0  0  0  0  0  0  0  0  0  0  0  0
   -2.0509   -0.0750    0.0000 C   0  0  0  0  0  0  0  0  0  0  0  0
   -2.6498    1.3002    0.0000 C   0  0  0  0  0  0  0  0  0  0  0  0
   -1.7582    2.5065    0.0000 C   0  0  0  0  0  0  0  0  0  0  0  0
   -0.2677    2.3375    0.0000 C   0  0  0  0  0  0  0  0  0  0  0  0
    0.6239    3.5437    0.0000 Cl  0  0  0  0  0  0  0  0  0  0  0  0
   -2.9425   -1.2813    0.0000 C   0  0  0  0  0  0  0  0  0  0  0  0
   -3.8341   -2.4875    0.0000 F   0  0  0  0  0  0  0  0  0  0  0  0
   -4.1488   -0.3897    0.0000 F   0  0  0  0  0  0  0  0  0  0  0  0
   -1.7363   -2.1729    0.0000 F   0  0  0  0  0  0  0  0  0  0  0  0
    3.9109   -0.7511    0.0000 C   0  0  0  0  0  0  0  0  0  0  0  0
    4.8025    0.4551    0.0000 O   0  0  0  0  0  0  0  0  0  0  0  0
    4.5097   -2.1264    0.0000 O   0  0  0  0  0  0  0  0  0  0  0  0
  2  1  1  1
  2  3  1  0
  3  4  1  0
  4  5  1  0
  5  6  2  0
  6  7  1  0
  7  8  2  0
  8  9  1  0
  9 10  1  0
  6 11  1  0
 11 12  1  0
 11 13  1  0
 11 14  1  0
  2 15  1  0
 15 16  2  0
 15 17  1  0
  9  4  2  0
M  END
>  <rName>  (2072) 
Phe_2Cl_5CF3

>  <PQ_SYMBOL>  (2072) 
Phe_2Cl_5CF3

>  <FULL_NAME>  (2072) 
(S)-2-amino-3-(2-chloro-5-(trifluoromethyl)phenyl)propanoic acid

>  <IUPAC_CONDENSED>  (2072) 
Phe(2-Cl,5-CF3)

>  <IUPAC>  (2072) 
(2S)-2-amino-3-(2-chloro-5-(trifluoromethyl)phenyl)propanoic acid

>  <TYPE>  (2072) 
Backbone

>  <CLASS>  (2072) 
alpha

>  <ANALOG>  (2072) 
Phe

>  <MOL_WT>  (2072) 
267.6339999999999

>  <LOGP>  (2072) 
2.3132

>  <TPSA>  (2072) 
63.32000000000001

>  <POPULARITY>  (2072) 
2.6

>  <PROTECTED>  (2072) 
TRUE

>  <SMILES>  (2072) 
N[C@@H](Cc1(cc(ccc1Cl)C(F)(F)F))C(=O)O

>  <INCHIKEY>  (2072) 
JTZHJIFNKMMHIZ-QMMMGPOBSA-N

$$$$
Ala_pyrazin2yl_6Cl
     RDKit          2D

 13 13  0  0  0  0  0  0  0  0999 V2000
   -1.7680    1.6690    0.0000 N   0  0  0  0  0  0  0  0  0  0  0  0
   -1.9932    0.1860    0.0000 C   0  0  0  0  0  0  0  0  0  0  0  0
   -0.8215   -0.7506    0.0000 C   0  0  0  0  0  0  0  0  0  0  0  0
    0.5754   -0.2041    0.0000 C   0  0  0  0  0  0  0  0  0  0  0  0
    0.8006    1.2789    0.0000 C   0  0  0  0  0  0  0  0  0  0  0  0
    2.1976    1.8254    0.0000 N   0  0  0  0  0  0  0  0  0  0  0  0
    3.3693    0.8888    0.0000 C   0  0  0  0  0  0  0  0  0  0  0  0
    3.1441   -0.5942    0.0000 C   0  0  0  0  0  0  0  0  0  0  0  0
    4.3158   -1.5307    0.0000 Cl  0  0  0  0  0  0  0  0  0  0  0  0
    1.7472   -1.1406    0.0000 N   0  0  0  0  0  0  0  0  0  0  0  0
   -3.3901   -0.3605    0.0000 C   0  0  0  0  0  0  0  0  0  0  0  0
   -3.6153   -1.8435    0.0000 O   0  0  0  0  0  0  0  0  0  0  0  0
   -4.5618    0.5760    0.0000 O   0  0  0  0  0  0  0  0  0  0  0  0
  2  1  1  1
  2  3  1  0
  3  4  1  0
  4  5  2  0
  5  6  1  0
  6  7  2  0
  7  8  1  0
  8  9  1  0
  8 10  2  0
  2 11  1  0
 11 12  2  0
 11 13  1  0
 10  4  1  0
M  END
>  <rName>  (2073) 
Ala_pyrazin2yl_6Cl

>  <PQ_SYMBOL>  (2073) 
Ala_pyrazin2yl_6Cl

>  <FULL_NAME>  (2073) 
(S)-2-amino-3-(6-chloropyrazin-2-yl)propanoic acid

>  <IUPAC_CONDENSED>  (2073) 
Ala(pyrazin-2-yl(6-Cl))

>  <IUPAC>  (2073) 
(2S)-2-amino-3-(6-chloropyrazin-2-yl)propanoic acid

>  <TYPE>  (2073) 
Backbone

>  <CLASS>  (2073) 
alpha

>  <ANALOG>  (2073) 
Phe

>  <MOL_WT>  (2073) 
201.613

>  <LOGP>  (2073) 
0.08439999999999975

>  <TPSA>  (2073) 
89.10000000000001

>  <POPULARITY>  (2073) 
2.2

>  <PROTECTED>  (2073) 
TRUE

>  <SMILES>  (2073) 
N[C@@H](Cc1(cncc(Cl)n1))C(=O)O

>  <INCHIKEY>  (2073) 
GRPSHIWZHGCARM-YFKPBYRVSA-N

$$$$
Ala_8oxotetrahydronaphthyl
     RDKit          2D

 17 18  0  0  0  0  0  0  0  0999 V2000
   -3.0374    1.6811    0.0000 N   0  0  0  0  0  0  0  0  0  0  0  0
   -3.2086    0.1908    0.0000 C   0  0  0  0  0  0  0  0  0  0  0  0
   -2.0036   -0.7025    0.0000 C   0  0  0  0  0  0  0  0  0  0  0  0
   -0.6275   -0.1056    0.0000 C   0  0  0  0  0  0  0  0  0  0  0  0
   -0.4563    1.3846    0.0000 C   0  0  0  0  0  0  0  0  0  0  0  0
    0.9198    1.9815    0.0000 C   0  0  0  0  0  0  0  0  0  0  0  0
    2.1248    1.0882    0.0000 C   0  0  0  0  0  0  0  0  0  0  0  0
    3.5009    1.6851    0.0000 C   0  0  0  0  0  0  0  0  0  0  0  0
    4.7059    0.7918    0.0000 C   0  0  0  0  0  0  0  0  0  0  0  0
    4.5348   -0.6984    0.0000 C   0  0  0  0  0  0  0  0  0  0  0  0
    3.1586   -1.2953    0.0000 C   0  0  0  0  0  0  0  0  0  0  0  0
    2.9875   -2.7855    0.0000 O   0  0  0  0  0  0  0  0  0  0  0  0
    1.9537   -0.4020    0.0000 C   0  0  0  0  0  0  0  0  0  0  0  0
    0.5775   -0.9989    0.0000 C   0  0  0  0  0  0  0  0  0  0  0  0
   -4.5847   -0.4060    0.0000 C   0  0  0  0  0  0  0  0  0  0  0  0
   -4.7558   -1.8963    0.0000 O   0  0  0  0  0  0  0  0  0  0  0  0
   -5.7897    0.4873    0.0000 O   0  0  0  0  0  0  0  0  0  0  0  0
  2  1  1  1
  2  3  1  0
  3  4  1  0
  4  5  1  0
  5  6  2  0
  6  7  1  0
  7  8  1  0
  8  9  1  0
  9 10  1  0
 10 11  1  0
 11 12  2  0
 11 13  1  0
 13 14  1  0
  2 15  1  0
 15 16  2  0
 15 17  1  0
 13  7  2  0
 14  4  2  0
M  END
>  <rName>  (2074) 
Ala_8oxotetrahydronaphthyl

>  <PQ_SYMBOL>  (2074) 
Ala_8oxotetrahydronaphthyl

>  <FULL_NAME>  (2074) 
(S)-2-amino-3-(8-oxo-5,6,7,8-tetrahydronaphthalen-2-yl)propanoic acid

>  <IUPAC_CONDENSED>  (2074) 
Ala(8-oxo-tetrahydronaphthyl)

>  <IUPAC>  (2074) 
(2S)-2-amino-3-(10-oxobicyclo[4.4.0]deca-1,3,5-trien-3-yl)propanoic acid

>  <TYPE>  (2074) 
Backbone

>  <CLASS>  (2074) 
alpha

>  <ANALOG>  (2074) 
Phe

>  <MOL_WT>  (2074) 
233.26699999999997

>  <LOGP>  (2074) 
1.1600000000000001

>  <TPSA>  (2074) 
80.39

>  <POPULARITY>  (2074) 
2.7

>  <PROTECTED>  (2074) 
TRUE

>  <SMILES>  (2074) 
N[C@@H](Cc2(ccc1(CCCC(=O)c1c2)))C(=O)O

>  <INCHIKEY>  (2074) 
HGBFHEHWRSKRHP-NSHDSACASA-N

$$$$
Phe_4iPr
     RDKit          2D

 15 15  0  0  0  0  0  0  0  0999 V2000
   -2.2547    1.6872    0.0000 N   0  0  0  0  0  0  0  0  0  0  0  0
   -2.7489    0.2709    0.0000 C   0  0  0  0  0  0  0  0  0  0  0  0
   -1.7696   -0.8652    0.0000 C   0  0  0  0  0  0  0  0  0  0  0  0
   -0.2959   -0.5852    0.0000 C   0  0  0  0  0  0  0  0  0  0  0  0
    0.1983    0.8311    0.0000 C   0  0  0  0  0  0  0  0  0  0  0  0
    1.6719    1.1111    0.0000 C   0  0  0  0  0  0  0  0  0  0  0  0
    2.6513   -0.0250    0.0000 C   0  0  0  0  0  0  0  0  0  0  0  0
    2.1570   -1.4413    0.0000 C   0  0  0  0  0  0  0  0  0  0  0  0
    0.6834   -1.7213    0.0000 C   0  0  0  0  0  0  0  0  0  0  0  0
    4.1249    0.2550    0.0000 C   0  0  0  0  0  0  0  0  0  0  0  0
    5.1043   -0.8811    0.0000 C   0  0  0  0  0  0  0  0  0  0  0  0
    4.6192    1.6713    0.0000 C   0  0  0  0  0  0  0  0  0  0  0  0
   -4.2225   -0.0091    0.0000 C   0  0  0  0  0  0  0  0  0  0  0  0
   -4.7168   -1.4254    0.0000 O   0  0  0  0  0  0  0  0  0  0  0  0
   -5.2019    1.1270    0.0000 O   0  0  0  0  0  0  0  0  0  0  0  0
  2  1  1  1
  2  3  1  0
  3  4  1  0
  4  5  1  0
  5  6  2  0
  6  7  1  0
  7  8  2  0
  8  9  1  0
  7 10  1  0
 10 11  1  0
 10 12  1  0
  2 13  1  0
 13 14  2  0
 13 15  1  0
  9  4  2  0
M  END
>  <rName>  (2075) 
Phe_4iPr

>  <PQ_SYMBOL>  (2075) 
Phe_4iPr

>  <FULL_NAME>  (2075) 
(S)-2-amino-3-(4-isopropylphenyl)propanoic acid

>  <IUPAC_CONDENSED>  (2075) 
Phe(4-iPr)

>  <IUPAC>  (2075) 
(2S)-2-amino-3-(4-(propan-2-yl)phenyl)propanoic acid

>  <TYPE>  (2075) 
Backbone

>  <CLASS>  (2075) 
alpha

>  <ANALOG>  (2075) 
Phe

>  <MOL_WT>  (2075) 
207.27299999999997

>  <LOGP>  (2075) 
1.7644000000000002

>  <TPSA>  (2075) 
63.32000000000001

>  <POPULARITY>  (2075) 
5.9

>  <PROTECTED>  (2075) 
TRUE

>  <SMILES>  (2075) 
N[C@@H](Cc1(ccc(cc1)C(C)C))C(=O)O

>  <INCHIKEY>  (2075) 
CYHRSNOITZHLJN-NSHDSACASA-N

$$$$
Phe_35diMe_4OMe
     RDKit          2D

 16 16  0  0  0  0  0  0  0  0999 V2000
   -2.4330    1.6061    0.0000 N   0  0  0  0  0  0  0  0  0  0  0  0
   -2.8129    0.1551    0.0000 C   0  0  0  0  0  0  0  0  0  0  0  0
   -1.7462   -0.8995    0.0000 C   0  0  0  0  0  0  0  0  0  0  0  0
   -0.2996   -0.5030    0.0000 C   0  0  0  0  0  0  0  0  0  0  0  0
    0.0804    0.9481    0.0000 C   0  0  0  0  0  0  0  0  0  0  0  0
    1.5270    1.3446    0.0000 C   0  0  0  0  0  0  0  0  0  0  0  0
    1.9070    2.7956    0.0000 C   0  0  0  0  0  0  0  0  0  0  0  0
    2.5937    0.2900    0.0000 C   0  0  0  0  0  0  0  0  0  0  0  0
    4.0404    0.6865    0.0000 O   0  0  0  0  0  0  0  0  0  0  0  0
    5.1071   -0.3681    0.0000 C   0  0  0  0  0  0  0  0  0  0  0  0
    2.2138   -1.1611    0.0000 C   0  0  0  0  0  0  0  0  0  0  0  0
    3.2805   -2.2157    0.0000 C   0  0  0  0  0  0  0  0  0  0  0  0
    0.7671   -1.5576    0.0000 C   0  0  0  0  0  0  0  0  0  0  0  0
   -4.2596   -0.2414    0.0000 C   0  0  0  0  0  0  0  0  0  0  0  0
   -4.6395   -1.6925    0.0000 O   0  0  0  0  0  0  0  0  0  0  0  0
   -5.3263    0.8131    0.0000 O   0  0  0  0  0  0  0  0  0  0  0  0
  2  1  1  1
  2  3  1  0
  3  4  1  0
  4  5  2  0
  5  6  1  0
  6  7  1  0
  6  8  2  0
  8  9  1  0
  9 10  1  0
  8 11  1  0
 11 12  1  0
 11 13  2  0
  2 14  1  0
 14 15  2  0
 14 16  1  0
 13  4  1  0
M  END
>  <rName>  (2076) 
Phe_35diMe_4OMe

>  <PQ_SYMBOL>  (2076) 
Phe_35diMe_4OMe

>  <FULL_NAME>  (2076) 
(S)-2-amino-3-(4-methoxy-3,5-dimethylphenyl)propanoic acid

>  <IUPAC_CONDENSED>  (2076) 
Phe(3,5-diMe,4-OMe)

>  <IUPAC>  (2076) 
(2S)-2-amino-3-(4-methoxy-3,5-dimethylphenyl)propanoic acid

>  <TYPE>  (2076) 
Backbone

>  <CLASS>  (2076) 
alpha

>  <ANALOG>  (2076) 
Tyr

>  <MOL_WT>  (2076) 
223.27199999999996

>  <LOGP>  (2076) 
1.2664400000000002

>  <TPSA>  (2076) 
72.55

>  <POPULARITY>  (2076) 
4.3

>  <PROTECTED>  (2076) 
TRUE

>  <SMILES>  (2076) 
N[C@@H](Cc1(cc(C)c(OC)c(C)c1))C(=O)O

>  <INCHIKEY>  (2076) 
ZNXKVMBAFAWSKI-JTQLQIEISA-N

$$$$
D-Pro_4RCF3
     RDKit          2D

 12 12  0  0  0  0  0  0  0  0999 V2000
    0.9909   -1.5972    0.0000 N   0  0  0  0  0  0  0  0  0  0  0  0
    1.4358   -0.1647    0.0000 C   0  0  0  0  0  0  0  0  0  0  0  0
    0.2109    0.7011    0.0000 C   0  0  0  0  0  0  0  0  0  0  0  0
   -0.9910   -0.1963    0.0000 C   0  0  0  0  0  0  0  0  0  0  0  0
   -0.5090   -1.6167    0.0000 C   0  0  0  0  0  0  0  0  0  0  0  0
   -2.4235    0.2487    0.0000 C   0  0  0  0  0  0  0  0  0  0  0  0
   -3.8560    0.6936    0.0000 F   0  0  0  0  0  0  0  0  0  0  0  0
   -1.9786    1.6812    0.0000 F   0  0  0  0  0  0  0  0  0  0  0  0
   -2.8685   -1.1838    0.0000 F   0  0  0  0  0  0  0  0  0  0  0  0
    2.8562    0.3173    0.0000 C   0  0  0  0  0  0  0  0  0  0  0  0
    3.1490    1.7885    0.0000 O   0  0  0  0  0  0  0  0  0  0  0  0
    3.9839   -0.6718    0.0000 O   0  0  0  0  0  0  0  0  0  0  0  0
  1  2  1  0
  2  3  1  0
  3  4  1  0
  4  5  1  0
  4  6  1  6
  6  7  1  0
  6  8  1  0
  6  9  1  0
  2 10  1  6
 10 11  2  0
 10 12  1  0
  5  1  1  0
M  END
>  <rName>  (2077) 
D-Pro_4RCF3

>  <PQ_SYMBOL>  (2077) 
D-Pro_4RCF3

>  <FULL_NAME>  (2077) 
(2R,4R)-4-(trifluoromethyl)pyrrolidine-2-carboxylic acid

>  <IUPAC_CONDENSED>  (2077) 
D-Pro(4R-CF3)

>  <IUPAC>  (2077) 
(2R,4R)-4-(trifluoromethyl)pyrrolidine-2-carboxylic acid

>  <TYPE>  (2077) 
Backbone

>  <CLASS>  (2077) 
alpha

>  <ANALOG>  (2077) 
Pro

>  <MOL_WT>  (2077) 
183.12900000000002

>  <LOGP>  (2077) 
0.6113999999999999

>  <TPSA>  (2077) 
49.33

>  <POPULARITY>  (2077) 
3.2

>  <PROTECTED>  (2077) 
TRUE

>  <SMILES>  (2077) 
N1[C@H](C[C@H](C1)C(F)(F)F)C(=O)O

>  <INCHIKEY>  (2077) 
GBECQKOJMXNJCV-QWWZWVQMSA-N

$$$$
Pro_4SCF3
     RDKit          2D

 12 12  0  0  0  0  0  0  0  0999 V2000
    0.9909   -1.5972    0.0000 N   0  0  0  0  0  0  0  0  0  0  0  0
    1.4358   -0.1647    0.0000 C   0  0  0  0  0  0  0  0  0  0  0  0
    0.2109    0.7011    0.0000 C   0  0  0  0  0  0  0  0  0  0  0  0
   -0.9910   -0.1963    0.0000 C   0  0  0  0  0  0  0  0  0  0  0  0
   -0.5090   -1.6167    0.0000 C   0  0  0  0  0  0  0  0  0  0  0  0
   -2.4235    0.2487    0.0000 C   0  0  0  0  0  0  0  0  0  0  0  0
   -3.8560    0.6936    0.0000 F   0  0  0  0  0  0  0  0  0  0  0  0
   -1.9786    1.6812    0.0000 F   0  0  0  0  0  0  0  0  0  0  0  0
   -2.8685   -1.1838    0.0000 F   0  0  0  0  0  0  0  0  0  0  0  0
    2.8562    0.3173    0.0000 C   0  0  0  0  0  0  0  0  0  0  0  0
    3.1490    1.7885    0.0000 O   0  0  0  0  0  0  0  0  0  0  0  0
    3.9839   -0.6718    0.0000 O   0  0  0  0  0  0  0  0  0  0  0  0
  1  2  1  0
  2  3  1  0
  3  4  1  0
  4  5  1  0
  4  6  1  1
  6  7  1  0
  6  8  1  0
  6  9  1  0
  2 10  1  1
 10 11  2  0
 10 12  1  0
  5  1  1  0
M  END
>  <rName>  (2078) 
Pro_4SCF3

>  <PQ_SYMBOL>  (2078) 
Pro_4SCF3

>  <FULL_NAME>  (2078) 
(2S,4S)-4-(trifluoromethyl)pyrrolidine-2-carboxylic acid

>  <IUPAC_CONDENSED>  (2078) 
Pro(4S-CF3)

>  <IUPAC>  (2078) 
(2S,4S)-4-(trifluoromethyl)pyrrolidine-2-carboxylic acid

>  <TYPE>  (2078) 
Backbone

>  <CLASS>  (2078) 
alpha

>  <ANALOG>  (2078) 
Pro

>  <MOL_WT>  (2078) 
183.12900000000002

>  <LOGP>  (2078) 
0.6113999999999999

>  <TPSA>  (2078) 
49.33

>  <POPULARITY>  (2078) 
6.4

>  <PROTECTED>  (2078) 
TRUE

>  <SMILES>  (2078) 
N1[C@@H](C[C@@H](C1)C(F)(F)F)C(=O)O

>  <INCHIKEY>  (2078) 
GBECQKOJMXNJCV-IMJSIDKUSA-N

$$$$
Phe_2Me_4NO2_5NH2
     RDKit          2D

 17 17  0  0  0  0  0  0  0  0999 V2000
   -2.3272    1.8112    0.0000 N   0  0  0  0  0  0  0  0  0  0  0  0
   -2.8740    0.4145    0.0000 C   0  0  0  0  0  0  0  0  0  0  0  0
   -1.9378   -0.7575    0.0000 C   0  0  0  0  0  0  0  0  0  0  0  0
   -0.4547   -0.5327    0.0000 C   0  0  0  0  0  0  0  0  0  0  0  0
    0.0921    0.8641    0.0000 C   0  0  0  0  0  0  0  0  0  0  0  0
    1.5752    1.0889    0.0000 C   0  0  0  0  0  0  0  0  0  0  0  0
    2.1220    2.4857    0.0000 N   0  0  0  0  0  0  0  0  0  0  0  0
    2.5114   -0.0830    0.0000 C   0  0  0  0  0  0  0  0  0  0  0  0
    1.9646   -1.4798    0.0000 C   0  0  0  0  0  0  0  0  0  0  0  0
    0.4815   -1.7046    0.0000 C   0  0  0  0  0  0  0  0  0  0  0  0
   -0.0653   -3.1014    0.0000 C   0  0  0  0  0  0  0  0  0  0  0  0
    3.9945    0.1418    0.0000 N   0  0  0  0  0  0  0  0  0  0  0  0
    4.5413    1.5386    0.0000 O   0  0  0  0  0  0  0  0  0  0  0  0
    4.9307   -1.0301    0.0000 O   0  0  0  0  0  0  0  0  0  0  0  0
   -4.3571    0.1896    0.0000 C   0  0  0  0  0  0  0  0  0  0  0  0
   -4.9039   -1.2071    0.0000 O   0  0  0  0  0  0  0  0  0  0  0  0
   -5.2933    1.3616    0.0000 O   0  0  0  0  0  0  0  0  0  0  0  0
  2  1  1  1
  2  3  1  0
  3  4  1  0
  4  5  1  0
  5  6  2  0
  6  7  1  0
  6  8  1  0
  8  9  2  0
  9 10  1  0
 10 11  1  0
  8 12  1  0
 12 13  2  0
 12 14  1  0
  2 15  1  0
 15 16  2  0
 15 17  1  0
 10  4  2  0
M  CHG  2  12   1  14  -1
M  END
>  <rName>  (2079) 
Phe_2Me_4NO2_5NH2

>  <PQ_SYMBOL>  (2079) 
Phe_2Me_4NO2_5NH2

>  <FULL_NAME>  (2079) 
(S)-2-amino-3-(5-amino-2-methyl-4-nitrophenyl)propanoic acid

>  <IUPAC_CONDENSED>  (2079) 
Phe(2-Me,4-NO2,5-NH2)

>  <IUPAC>  (2079) 
(2S)-2-amino-3-(5-amino-2-methyl-4-nitrophenyl)propanoic acid

>  <TYPE>  (2079) 
Backbone

>  <CLASS>  (2079) 
alpha

>  <ANALOG>  (2079) 
Phe

>  <MOL_WT>  (2079) 
239.23099999999997

>  <LOGP>  (2079) 
0.4398200000000001

>  <TPSA>  (2079) 
132.48

>  <POPULARITY>  (2079) 
2.2

>  <PROTECTED>  (2079) 
TRUE

>  <SMILES>  (2079) 
N[C@@H](Cc1(cc(N)c(cc1C)[N+](=O)[O-]))C(=O)O

>  <INCHIKEY>  (2079) 
IQNOJBHCHICZEE-QMMMGPOBSA-N

$$$$
Phe_2_1SMOMEt_4F
     RDKit          2D

 19 19  0  0  0  0  0  0  0  0999 V2000
   -0.3883   -3.3946    0.0000 N   0  0  0  0  0  0  0  0  0  0  0  0
    0.7238   -2.3880    0.0000 C   0  0  0  0  0  0  0  0  0  0  0  0
    0.4082   -0.9216    0.0000 C   0  0  0  0  0  0  0  0  0  0  0  0
   -1.0196   -0.4617    0.0000 C   0  0  0  0  0  0  0  0  0  0  0  0
   -2.1317   -1.4683    0.0000 C   0  0  0  0  0  0  0  0  0  0  0  0
   -3.5595   -1.0084    0.0000 C   0  0  0  0  0  0  0  0  0  0  0  0
   -3.8751    0.4580    0.0000 C   0  0  0  0  0  0  0  0  0  0  0  0
   -5.3029    0.9179    0.0000 F   0  0  0  0  0  0  0  0  0  0  0  0
   -2.7630    1.4646    0.0000 C   0  0  0  0  0  0  0  0  0  0  0  0
   -1.3352    1.0047    0.0000 C   0  0  0  0  0  0  0  0  0  0  0  0
   -0.2231    2.0112    0.0000 C   0  0  0  0  0  0  0  0  0  0  0  0
    1.2047    1.5514    0.0000 O   0  0  0  0  0  0  0  0  0  0  0  0
    2.3168    2.5579    0.0000 C   0  0  0  0  0  0  0  0  0  0  0  0
    3.7446    2.0981    0.0000 O   0  0  0  0  0  0  0  0  0  0  0  0
    4.8567    3.1046    0.0000 C   0  0  0  0  0  0  0  0  0  0  0  0
   -0.5387    3.4777    0.0000 C   0  0  0  0  0  0  0  0  0  0  0  0
    2.1516   -2.8479    0.0000 C   0  0  0  0  0  0  0  0  0  0  0  0
    3.2637   -1.8413    0.0000 O   0  0  0  0  0  0  0  0  0  0  0  0
    2.4672   -4.3143    0.0000 O   0  0  0  0  0  0  0  0  0  0  0  0
  2  1  1  1
  2  3  1  0
  3  4  1  0
  4  5  1  0
  5  6  2  0
  6  7  1  0
  7  8  1  0
  7  9  2  0
  9 10  1  0
 10 11  1  0
 11 12  1  0
 12 13  1  0
 13 14  1  0
 14 15  1  0
 11 16  1  6
  2 17  1  0
 17 18  2  0
 17 19  1  0
 10  4  2  0
M  END
>  <rName>  (2080) 
Phe_2_1SMOMEt_4F

>  <PQ_SYMBOL>  (2080) 
Phe_2_1SMOMEt_4F

>  <FULL_NAME>  (2080) 
(S)-2-amino-3-(4-fluoro-2-((S)-1-(methoxymethoxy)ethyl)phenyl)propanoic acid

>  <IUPAC_CONDENSED>  (2080) 
Phe(2-(1S-MOM-Et),4-F)

>  <IUPAC>  (2080) 
(2S)-2-amino-3-(4-fluoro-2-((1S)-1-(methoxymethoxy)ethyl)phenyl)propanoic acid

>  <TYPE>  (2080) 
Backbone

>  <CLASS>  (2080) 
alpha

>  <ANALOG>  (2080) 
Phe

>  <MOL_WT>  (2080) 
271.28799999999995

>  <LOGP>  (2080) 
1.4616

>  <TPSA>  (2080) 
81.78

>  <POPULARITY>  (2080) 
2.2

>  <PROTECTED>  (2080) 
TRUE

>  <SMILES>  (2080) 
N[C@@H](Cc1(ccc(F)cc1[C@@H](OCOC)C))C(=O)O

>  <INCHIKEY>  (2080) 
WDNZZOKSCVCYQP-UFBFGSQYSA-N

$$$$
Phe_35diMe_4F
     RDKit          2D

 15 15  0  0  0  0  0  0  0  0999 V2000
   -2.0609    1.6226    0.0000 N   0  0  0  0  0  0  0  0  0  0  0  0
   -2.4694    0.1793    0.0000 C   0  0  0  0  0  0  0  0  0  0  0  0
   -1.4237   -0.8961    0.0000 C   0  0  0  0  0  0  0  0  0  0  0  0
    0.0305   -0.5283    0.0000 C   0  0  0  0  0  0  0  0  0  0  0  0
    0.4390    0.9150    0.0000 C   0  0  0  0  0  0  0  0  0  0  0  0
    1.8932    1.2829    0.0000 C   0  0  0  0  0  0  0  0  0  0  0  0
    2.3017    2.7262    0.0000 C   0  0  0  0  0  0  0  0  0  0  0  0
    2.9389    0.2075    0.0000 C   0  0  0  0  0  0  0  0  0  0  0  0
    4.3931    0.5753    0.0000 F   0  0  0  0  0  0  0  0  0  0  0  0
    2.5304   -1.2358    0.0000 C   0  0  0  0  0  0  0  0  0  0  0  0
    3.5760   -2.3113    0.0000 C   0  0  0  0  0  0  0  0  0  0  0  0
    1.0762   -1.6037    0.0000 C   0  0  0  0  0  0  0  0  0  0  0  0
   -3.9236   -0.1886    0.0000 C   0  0  0  0  0  0  0  0  0  0  0  0
   -4.3321   -1.6319    0.0000 O   0  0  0  0  0  0  0  0  0  0  0  0
   -4.9693    0.8868    0.0000 O   0  0  0  0  0  0  0  0  0  0  0  0
  2  1  1  1
  2  3  1  0
  3  4  1  0
  4  5  2  0
  5  6  1  0
  6  7  1  0
  6  8  2  0
  8  9  1  0
  8 10  1  0
 10 11  1  0
 10 12  2  0
  2 13  1  0
 13 14  2  0
 13 15  1  0
 12  4  1  0
M  END
>  <rName>  (2081) 
Phe_35diMe_4F

>  <PQ_SYMBOL>  (2081) 
Phe_35diMe_4F

>  <FULL_NAME>  (2081) 
(S)-2-amino-3-(4-fluoro-3,5-dimethylphenyl)propanoic acid

>  <IUPAC_CONDENSED>  (2081) 
Phe(3,5-diMe,4-F)

>  <IUPAC>  (2081) 
(2S)-2-amino-3-(4-fluoro-3,5-dimethylphenyl)propanoic acid

>  <TYPE>  (2081) 
Backbone

>  <CLASS>  (2081) 
alpha

>  <ANALOG>  (2081) 
Phe

>  <MOL_WT>  (2081) 
211.236

>  <LOGP>  (2081) 
1.3969400000000003

>  <TPSA>  (2081) 
63.32000000000001

>  <POPULARITY>  (2081) 
2.7

>  <PROTECTED>  (2081) 
TRUE

>  <SMILES>  (2081) 
N[C@@H](Cc1(cc(C)c(F)c(C)c1))C(=O)O

>  <INCHIKEY>  (2081) 
ZDXQFWPMVPQNOY-VIFPVBQESA-N

$$$$
Phe_2Cl_5CO2H
     RDKit          2D

 16 16  0  0  0  0  0  0  0  0999 V2000
    1.4458   -1.7915    0.0000 N   0  0  0  0  0  0  0  0  0  0  0  0
    2.2696   -0.5380    0.0000 C   0  0  0  0  0  0  0  0  0  0  0  0
    1.5959    0.8022    0.0000 C   0  0  0  0  0  0  0  0  0  0  0  0
    0.0984    0.8889    0.0000 C   0  0  0  0  0  0  0  0  0  0  0  0
   -0.7254   -0.3646    0.0000 C   0  0  0  0  0  0  0  0  0  0  0  0
   -2.2229   -0.2780    0.0000 C   0  0  0  0  0  0  0  0  0  0  0  0
   -2.8966    1.0622    0.0000 C   0  0  0  0  0  0  0  0  0  0  0  0
   -2.0728    2.3158    0.0000 C   0  0  0  0  0  0  0  0  0  0  0  0
   -0.5753    2.2291    0.0000 C   0  0  0  0  0  0  0  0  0  0  0  0
    0.2485    3.4826    0.0000 Cl  0  0  0  0  0  0  0  0  0  0  0  0
   -3.0467   -1.5315    0.0000 C   0  0  0  0  0  0  0  0  0  0  0  0
   -2.3730   -2.8717    0.0000 O   0  0  0  0  0  0  0  0  0  0  0  0
   -4.5442   -1.4448    0.0000 O   0  0  0  0  0  0  0  0  0  0  0  0
    3.7671   -0.6247    0.0000 C   0  0  0  0  0  0  0  0  0  0  0  0
    4.5909    0.6289    0.0000 O   0  0  0  0  0  0  0  0  0  0  0  0
    4.4408   -1.9649    0.0000 O   0  0  0  0  0  0  0  0  0  0  0  0
  2  1  1  1
  2  3  1  0
  3  4  1  0
  4  5  1  0
  5  6  2  0
  6  7  1  0
  7  8  2  0
  8  9  1  0
  9 10  1  0
  6 11  1  0
 11 12  2  0
 11 13  1  0
  2 14  1  0
 14 15  2  0
 14 16  1  0
  9  4  2  0
M  END
>  <rName>  (2082) 
Phe_2Cl_5CO2H

>  <PQ_SYMBOL>  (2082) 
Phe_2Cl_5CO2H

>  <FULL_NAME>  (2082) 
(S)-3-(2-amino-2-carboxyethyl)-4-chlorobenzoic acid

>  <IUPAC_CONDENSED>  (2082) 
Phe(2-Cl,5-CO2H)

>  <IUPAC>  (2082) 
3-((2S)-2-amino-3-hydroxy-3-oxopropyl)-4-chlorobenzene-1-carboxylic acid

>  <TYPE>  (2082) 
Backbone

>  <CLASS>  (2082) 
alpha

>  <ANALOG>  (2082) 
Phe

>  <MOL_WT>  (2082) 
243.64599999999996

>  <LOGP>  (2082) 
0.9926000000000001

>  <TPSA>  (2082) 
100.62000000000002

>  <POPULARITY>  (2082) 
2.5

>  <PROTECTED>  (2082) 
TRUE

>  <SMILES>  (2082) 
N[C@@H](Cc1(cc(ccc1Cl)C(=O)O))C(=O)O

>  <INCHIKEY>  (2082) 
VISXCDRQCJQUCY-QMMMGPOBSA-N

$$$$
Tyr_pyrid3ylmethyl
     RDKit          2D

 20 21  0  0  0  0  0  0  0  0999 V2000
   -4.5045    1.7035    0.0000 N   0  0  0  0  0  0  0  0  0  0  0  0
   -4.9466    0.2701    0.0000 C   0  0  0  0  0  0  0  0  0  0  0  0
   -3.9264   -0.8295    0.0000 C   0  0  0  0  0  0  0  0  0  0  0  0
   -2.4640   -0.4957    0.0000 C   0  0  0  0  0  0  0  0  0  0  0  0
   -2.0218    0.9376    0.0000 C   0  0  0  0  0  0  0  0  0  0  0  0
   -0.5594    1.2714    0.0000 C   0  0  0  0  0  0  0  0  0  0  0  0
    0.4608    0.1718    0.0000 C   0  0  0  0  0  0  0  0  0  0  0  0
    1.9232    0.5056    0.0000 O   0  0  0  0  0  0  0  0  0  0  0  0
    2.9435   -0.5940    0.0000 C   0  0  0  0  0  0  0  0  0  0  0  0
    4.4059   -0.2603    0.0000 C   0  0  0  0  0  0  0  0  0  0  0  0
    5.4261   -1.3599    0.0000 C   0  0  0  0  0  0  0  0  0  0  0  0
    6.8885   -1.0261    0.0000 C   0  0  0  0  0  0  0  0  0  0  0  0
    7.3307    0.4072    0.0000 C   0  0  0  0  0  0  0  0  0  0  0  0
    6.3104    1.5068    0.0000 N   0  0  0  0  0  0  0  0  0  0  0  0
    4.8480    1.1731    0.0000 C   0  0  0  0  0  0  0  0  0  0  0  0
    0.0187   -1.2616    0.0000 C   0  0  0  0  0  0  0  0  0  0  0  0
   -1.4437   -1.5953    0.0000 C   0  0  0  0  0  0  0  0  0  0  0  0
   -6.4090   -0.0637    0.0000 C   0  0  0  0  0  0  0  0  0  0  0  0
   -6.8512   -1.4970    0.0000 O   0  0  0  0  0  0  0  0  0  0  0  0
   -7.4292    1.0359    0.0000 O   0  0  0  0  0  0  0  0  0  0  0  0
  2  1  1  1
  2  3  1  0
  3  4  1  0
  4  5  1  0
  5  6  2  0
  6  7  1  0
  7  8  1  0
  8  9  1  0
  9 10  1  0
 10 11  2  0
 11 12  1  0
 12 13  2  0
 13 14  1  0
 14 15  2  0
  7 16  2  0
 16 17  1  0
  2 18  1  0
 18 19  2  0
 18 20  1  0
 15 10  1  0
 17  4  2  0
M  END
>  <rName>  (2083) 
Tyr_pyrid3ylmethyl

>  <PQ_SYMBOL>  (2083) 
Tyr_pyrid3ylmethyl

>  <FULL_NAME>  (2083) 
(S)-2-amino-3-(4-(pyridin-3-ylmethoxy)phenyl)propanoic acid

>  <IUPAC_CONDENSED>  (2083) 
Tyr(pyrid-3-ylmethyl)

>  <IUPAC>  (2083) 
(2S)-2-amino-3-(4-(((pyridin-3-yl)methyl)oxy)phenyl)propanoic acid

>  <TYPE>  (2083) 
Backbone

>  <CLASS>  (2083) 
alpha

>  <ANALOG>  (2083) 
Tyr

>  <MOL_WT>  (2083) 
272.304

>  <LOGP>  (2083) 
1.6150000000000002

>  <TPSA>  (2083) 
85.44000000000001

>  <POPULARITY>  (2083) 
3.9

>  <PROTECTED>  (2083) 
TRUE

>  <SMILES>  (2083) 
N[C@@H](Cc2(ccc(OCc1(cccnc1))cc2))C(=O)O

>  <INCHIKEY>  (2083) 
BPECVGYMQYNNFL-AWEZNQCLSA-N

$$$$
NMe-D-hArg
     RDKit          2D

 14 13  0  0  0  0  0  0  0  0999 V2000
   -4.0848    1.3362    0.0000 N   0  0  0  0  0  0  0  0  0  0  0  0
   -5.4377    0.6884    0.0000 C   0  0  0  0  0  0  0  0  0  0  0  0
   -2.8473    0.4884    0.0000 C   0  0  0  0  0  0  0  0  0  0  0  0
   -1.4944    1.1362    0.0000 C   0  0  0  0  0  0  0  0  0  0  0  0
   -0.2569    0.2885    0.0000 C   0  0  0  0  0  0  0  0  0  0  0  0
    1.0960    0.9363    0.0000 C   0  0  0  0  0  0  0  0  0  0  0  0
    2.3334    0.0885    0.0000 C   0  0  0  0  0  0  0  0  0  0  0  0
    3.6864    0.7363    0.0000 N   0  0  0  0  0  0  0  0  0  0  0  0
    4.9238   -0.1114    0.0000 C   0  0  0  0  0  0  0  0  0  0  0  0
    4.8084   -1.6070    0.0000 N   0  0  0  0  0  0  0  0  0  0  0  0
    6.2767    0.5364    0.0000 N   0  0  0  0  0  0  0  0  0  0  0  0
   -2.9627   -1.0071    0.0000 C   0  0  0  0  0  0  0  0  0  0  0  0
   -4.3156   -1.6549    0.0000 O   0  0  0  0  0  0  0  0  0  0  0  0
   -1.7253   -1.8549    0.0000 O   0  0  0  0  0  0  0  0  0  0  0  0
  1  2  1  0
  1  3  1  0
  3  4  1  6
  4  5  1  0
  5  6  1  0
  6  7  1  0
  7  8  1  0
  8  9  1  0
  9 10  2  0
  9 11  1  0
  3 12  1  0
 12 13  2  0
 12 14  1  0
M  END
>  <rName>  (2084) 
NMe-D-hArg

>  <PQ_SYMBOL>  (2084) 
NMe-D-hArg

>  <FULL_NAME>  (2084) 
N6-carbamimidoyl-N2-methyl-D-lysine

>  <IUPAC_CONDENSED>  (2084) 
Me-D-hArg

>  <IUPAC>  (2084) 
(2R)-6-(((amino)(imino)methyl)amino)-2-(methylamino)hexanoic acid

>  <TYPE>  (2084) 
Backbone

>  <CLASS>  (2084) 
alpha

>  <ANALOG>  (2084) 
Arg

>  <MOL_WT>  (2084) 
202.258

>  <LOGP>  (2084) 
-0.6876299999999982

>  <TPSA>  (2084) 
111.23

>  <POPULARITY>  (2084) 
5.4

>  <PROTECTED>  (2084) 
TRUE

>  <SMILES>  (2084) 
N(C)[C@H](CCCCNC(=N)N)C(=O)O

>  <INCHIKEY>  (2084) 
QPSLHZWJZSBVBL-ZCFIWIBFSA-N

$$$$
Ala_fur3yl
     RDKit          2D

 13 13  0  0  0  0  0  0  0  0999 V2000
   -1.3427    1.6251    0.0000 N   0  0  0  0  0  0  0  0  0  0  0  0
   -1.5768    0.1435    0.0000 C   0  0  0  0  0  0  0  0  0  0  0  0
   -0.4108   -0.8001    0.0000 C   0  0  0  0  0  0  0  0  0  0  0  0
    0.9894   -0.2621    0.0000 C   0  0  0  0  0  0  0  0  0  0  0  0
    2.2476   -1.0787    0.0000 C   0  0  0  0  0  0  0  0  0  0  0  0
    2.3266   -2.5766    0.0000 C   0  0  0  0  0  0  0  0  0  0  0  0
    3.4131   -0.1343    0.0000 N   0  0  0  0  0  0  0  0  0  0  0  0
    2.8750    1.2659    0.0000 O   0  0  0  0  0  0  0  0  0  0  0  0
    1.3771    1.1869    0.0000 C   0  0  0  0  0  0  0  0  0  0  0  0
    0.4328    2.3523    0.0000 C   0  0  0  0  0  0  0  0  0  0  0  0
   -2.9770   -0.3946    0.0000 C   0  0  0  0  0  0  0  0  0  0  0  0
   -3.2112   -1.8762    0.0000 O   0  0  0  0  0  0  0  0  0  0  0  0
   -4.1431    0.5490    0.0000 O   0  0  0  0  0  0  0  0  0  0  0  0
  2  1  1  1
  2  3  1  0
  3  4  1  0
  4  5  1  0
  5  6  1  0
  5  7  2  0
  7  8  1  0
  8  9  1  0
  9 10  1  0
  2 11  1  0
 11 12  2  0
 11 13  1  0
  9  4  2  0
M  END
>  <rName>  (2085) 
Ala_fur3yl

>  <PQ_SYMBOL>  (2085) 
Ala_fur3yl

>  <FULL_NAME>  (2085) 
(S)-2-amino-3-(3,5-dimethylisoxazol-4-yl)propanoic acid

>  <IUPAC_CONDENSED>  (2085) 
Ala(fur-3-yl)

>  <IUPAC>  (2085) 
(2S)-2-amino-3-(3,5-dimethylisoxazol-4-yl)propanoic acid

>  <TYPE>  (2085) 
Backbone

>  <CLASS>  (2085) 
alpha

>  <ANALOG>  (2085) 
Phe

>  <MOL_WT>  (2085) 
184.195

>  <LOGP>  (2085) 
0.24584

>  <TPSA>  (2085) 
89.35000000000001

>  <POPULARITY>  (2085) 
4.2

>  <PROTECTED>  (2085) 
TRUE

>  <SMILES>  (2085) 
N[C@@H](Cc1(c(C)noc1C))C(=O)O

>  <INCHIKEY>  (2085) 
JZUQZSLJKNNWNX-ZETCQYMHSA-N

$$$$
Ala_pyrid3yl_6Me
     RDKit          2D

 13 13  0  0  0  0  0  0  0  0999 V2000
   -1.5766    1.6851    0.0000 N   0  0  0  0  0  0  0  0  0  0  0  0
   -2.0128    0.2500    0.0000 C   0  0  0  0  0  0  0  0  0  0  0  0
   -0.9880   -0.8454    0.0000 C   0  0  0  0  0  0  0  0  0  0  0  0
    0.4730   -0.5055    0.0000 C   0  0  0  0  0  0  0  0  0  0  0  0
    0.9092    0.9296    0.0000 C   0  0  0  0  0  0  0  0  0  0  0  0
    2.3702    1.2695    0.0000 C   0  0  0  0  0  0  0  0  0  0  0  0
    3.3950    0.1741    0.0000 C   0  0  0  0  0  0  0  0  0  0  0  0
    4.8560    0.5140    0.0000 C   0  0  0  0  0  0  0  0  0  0  0  0
    2.9588   -1.2611    0.0000 N   0  0  0  0  0  0  0  0  0  0  0  0
    1.4978   -1.6009    0.0000 C   0  0  0  0  0  0  0  0  0  0  0  0
   -3.4738   -0.0899    0.0000 C   0  0  0  0  0  0  0  0  0  0  0  0
   -3.9100   -1.5250    0.0000 O   0  0  0  0  0  0  0  0  0  0  0  0
   -4.4986    1.0055    0.0000 O   0  0  0  0  0  0  0  0  0  0  0  0
  2  1  1  1
  2  3  1  0
  3  4  1  0
  4  5  1  0
  5  6  2  0
  6  7  1  0
  7  8  1  0
  7  9  2  0
  9 10  1  0
  2 11  1  0
 11 12  2  0
 11 13  1  0
 10  4  2  0
M  END
>  <rName>  (2086) 
Ala_pyrid3yl_6Me

>  <PQ_SYMBOL>  (2086) 
Ala_pyrid3yl_6Me

>  <FULL_NAME>  (2086) 
(S)-2-amino-3-(6-methylpyridin-3-yl)propanoic acid

>  <IUPAC_CONDENSED>  (2086) 
Ala(pyrid-3-yl(6-Me))

>  <IUPAC>  (2086) 
(2S)-2-amino-3-(6-methylpyridin-3-yl)propanoic acid

>  <TYPE>  (2086) 
Backbone

>  <CLASS>  (2086) 
alpha

>  <ANALOG>  (2086) 
Phe

>  <MOL_WT>  (2086) 
180.207

>  <LOGP>  (2086) 
0.3444200000000001

>  <TPSA>  (2086) 
76.21

>  <POPULARITY>  (2086) 
4.1

>  <PROTECTED>  (2086) 
TRUE

>  <SMILES>  (2086) 
N[C@@H](Cc1(ccc(C)nc1))C(=O)O

>  <INCHIKEY>  (2086) 
GDSXXYKEDGEVSD-QMMMGPOBSA-N

$$$$
Trp_7OMe_Aza
     RDKit          2D

 17 18  0  0  0  0  0  0  0  0999 V2000
   -3.1040   -1.8301    0.0000 N   0  0  0  0  0  0  0  0  0  0  0  0
   -3.1997   -0.3332    0.0000 C   0  0  0  0  0  0  0  0  0  0  0  0
   -1.9511    0.4982    0.0000 C   0  0  0  0  0  0  0  0  0  0  0  0
   -0.6069   -0.1675    0.0000 C   0  0  0  0  0  0  0  0  0  0  0  0
   -0.3553   -1.6462    0.0000 N   0  0  0  0  0  0  0  0  0  0  0  0
    1.1288   -1.8639    0.0000 N   0  0  0  0  0  0  0  0  0  0  0  0
    1.7945   -0.5197    0.0000 C   0  0  0  0  0  0  0  0  0  0  0  0
    3.2388   -0.1149    0.0000 C   0  0  0  0  0  0  0  0  0  0  0  0
    4.3116   -1.1633    0.0000 O   0  0  0  0  0  0  0  0  0  0  0  0
    5.7559   -0.7585    0.0000 C   0  0  0  0  0  0  0  0  0  0  0  0
    3.6104    1.3384    0.0000 C   0  0  0  0  0  0  0  0  0  0  0  0
    2.5377    2.3868    0.0000 C   0  0  0  0  0  0  0  0  0  0  0  0
    1.0933    1.9820    0.0000 C   0  0  0  0  0  0  0  0  0  0  0  0
    0.7217    0.5288    0.0000 C   0  0  0  0  0  0  0  0  0  0  0  0
   -4.5439    0.3325    0.0000 C   0  0  0  0  0  0  0  0  0  0  0  0
   -4.6396    1.8294    0.0000 O   0  0  0  0  0  0  0  0  0  0  0  0
   -5.7925   -0.4988    0.0000 O   0  0  0  0  0  0  0  0  0  0  0  0
  2  1  1  6
  2  3  1  0
  3  4  1  0
  4  5  2  0
  5  6  1  0
  6  7  1  0
  7  8  2  0
  8  9  1  0
  9 10  1  0
  8 11  1  0
 11 12  2  0
 12 13  1  0
 13 14  2  0
  2 15  1  0
 15 16  2  0
 15 17  1  0
 14  7  1  0
 14  4  1  0
M  END
>  <rName>  (2087) 
Trp_7OMe_Aza

>  <PQ_SYMBOL>  (2087) 
Trp_7OMe_Aza

>  <FULL_NAME>  (2087) 
(S)-2-amino-3-(7-methoxy-1H-indazol-3-yl)propanoic acid

>  <IUPAC_CONDENSED>  (2087) 
Trp(7-OMe,Aza)

>  <IUPAC>  (2087) 
(2S)-2-amino-3-(7-methoxy-1H-indazol-3-yl)propanoic acid

>  <TYPE>  (2087) 
Backbone

>  <CLASS>  (2087) 
alpha

>  <ANALOG>  (2087) 
Tyr

>  <MOL_WT>  (2087) 
235.243

>  <LOGP>  (2087) 
0.5258999999999998

>  <TPSA>  (2087) 
101.23

>  <POPULARITY>  (2087) 
2.2

>  <PROTECTED>  (2087) 
TRUE

>  <SMILES>  (2087) 
N[C@@H](Cc2(n[nH]c1(c(OC)cccc12)))C(=O)O

>  <INCHIKEY>  (2087) 
LTVHIQCFBUQJDH-ZETCQYMHSA-N

$$$$
Ala_pyrimid5yl_24diOMe
     RDKit          2D

 16 16  0  0  0  0  0  0  0  0999 V2000
   -2.3497    1.9414    0.0000 N   0  0  0  0  0  0  0  0  0  0  0  0
   -2.6382    0.4694    0.0000 C   0  0  0  0  0  0  0  0  0  0  0  0
   -1.5077   -0.5165    0.0000 C   0  0  0  0  0  0  0  0  0  0  0  0
   -0.0887   -0.0304    0.0000 C   0  0  0  0  0  0  0  0  0  0  0  0
    0.1999    1.4416    0.0000 C   0  0  0  0  0  0  0  0  0  0  0  0
    1.6189    1.9277    0.0000 N   0  0  0  0  0  0  0  0  0  0  0  0
    2.7494    0.9418    0.0000 C   0  0  0  0  0  0  0  0  0  0  0  0
    4.1685    1.4279    0.0000 O   0  0  0  0  0  0  0  0  0  0  0  0
    5.2990    0.4420    0.0000 C   0  0  0  0  0  0  0  0  0  0  0  0
    2.4609   -0.5302    0.0000 N   0  0  0  0  0  0  0  0  0  0  0  0
    1.0418   -1.0163    0.0000 C   0  0  0  0  0  0  0  0  0  0  0  0
    0.7532   -2.4883    0.0000 O   0  0  0  0  0  0  0  0  0  0  0  0
    1.8837   -3.4742    0.0000 C   0  0  0  0  0  0  0  0  0  0  0  0
   -4.0573   -0.0166    0.0000 C   0  0  0  0  0  0  0  0  0  0  0  0
   -4.3459   -1.4886    0.0000 O   0  0  0  0  0  0  0  0  0  0  0  0
   -5.1878    0.9693    0.0000 O   0  0  0  0  0  0  0  0  0  0  0  0
  2  1  1  1
  2  3  1  0
  3  4  1  0
  4  5  1  0
  5  6  2  0
  6  7  1  0
  7  8  1  0
  8  9  1  0
  7 10  2  0
 10 11  1  0
 11 12  1  0
 12 13  1  0
  2 14  1  0
 14 15  2  0
 14 16  1  0
 11  4  2  0
M  END
>  <rName>  (2088) 
Ala_pyrimid5yl_24diOMe

>  <PQ_SYMBOL>  (2088) 
Ala_pyrimid5yl_24diOMe

>  <FULL_NAME>  (2088) 
(S)-2-amino-3-(2,4-dimethoxypyrimidin-5-yl)propanoic acid

>  <IUPAC_CONDENSED>  (2088) 
Ala(pyrimid-5-yl(2,4-diOMe))

>  <IUPAC>  (2088) 
(2S)-2-amino-3-(2,4-dimethoxypyrimidin-5-yl)propanoic acid

>  <TYPE>  (2088) 
Backbone

>  <CLASS>  (2088) 
alpha

>  <ANALOG>  (2088) 
Phe

>  <MOL_WT>  (2088) 
227.21999999999997

>  <LOGP>  (2088) 
-0.5518000000000001

>  <TPSA>  (2088) 
107.56000000000002

>  <POPULARITY>  (2088) 
2.5

>  <PROTECTED>  (2088) 
TRUE

>  <SMILES>  (2088) 
N[C@@H](Cc1(cnc(OC)nc1OC))C(=O)O

>  <INCHIKEY>  (2088) 
JYTTUNITGWYPBZ-LURJTMIESA-N

$$$$
bAla_2ROH_3RPh_4Me
     RDKit          2D

 14 14  0  0  0  0  0  0  0  0999 V2000
   -1.3920   -2.0726    0.0000 N   0  0  0  0  0  0  0  0  0  0  0  0
   -0.9084   -0.6527    0.0000 C   0  0  0  0  0  0  0  0  0  0  0  0
    0.5630   -0.3615    0.0000 C   0  0  0  0  0  0  0  0  0  0  0  0
    1.0466    1.0584    0.0000 C   0  0  0  0  0  0  0  0  0  0  0  0
    2.5180    1.3496    0.0000 C   0  0  0  0  0  0  0  0  0  0  0  0
    3.5060    0.2209    0.0000 C   0  0  0  0  0  0  0  0  0  0  0  0
    4.9774    0.5121    0.0000 C   0  0  0  0  0  0  0  0  0  0  0  0
    3.0224   -1.1991    0.0000 C   0  0  0  0  0  0  0  0  0  0  0  0
    1.5509   -1.4902    0.0000 C   0  0  0  0  0  0  0  0  0  0  0  0
   -1.8963    0.4760    0.0000 C   0  0  0  0  0  0  0  0  0  0  0  0
   -1.4128    1.8959    0.0000 O   0  0  0  0  0  0  0  0  0  0  0  0
   -3.3678    0.1848    0.0000 C   0  0  0  0  0  0  0  0  0  0  0  0
   -3.8514   -1.2351    0.0000 O   0  0  0  0  0  0  0  0  0  0  0  0
   -4.3557    1.3135    0.0000 O   0  0  0  0  0  0  0  0  0  0  0  0
  2  1  1  1
  2  3  1  0
  3  4  1  0
  4  5  2  0
  5  6  1  0
  6  7  1  0
  6  8  2  0
  8  9  1  0
  2 10  1  0
 10 11  1  6
 10 12  1  0
 12 13  2  0
 12 14  1  0
  9  3  2  0
M  END
>  <rName>  (2089) 
bAla_2ROH_3RPh_4Me

>  <PQ_SYMBOL>  (2089) 
bAla_2ROH_3RPh_4Me

>  <FULL_NAME>  (2089) 
(2R,3R)-3-amino-2-hydroxy-3-(p-tolyl)propanoic acid

>  <IUPAC_CONDENSED>  (2089) 
bAla(2R-OH,3R-Ph(4-Me))

>  <IUPAC>  (2089) 
(2R,3R)-3-amino-2-hydroxy-3-(4-methylphenyl)propanoic acid

>  <TYPE>  (2089) 
Backbone

>  <CLASS>  (2089) 
beta

>  <ANALOG>  (2089) 
X

>  <MOL_WT>  (2089) 
195.218

>  <LOGP>  (2089) 
0.44032000000000004

>  <TPSA>  (2089) 
83.55

>  <POPULARITY>  (2089) 
4.2

>  <PROTECTED>  (2089) 
TRUE

>  <SMILES>  (2089) 
N[C@H](c1(ccc(C)cc1))[C@@H](O)C(=O)O

>  <INCHIKEY>  (2089) 
MXALXDNRLYPVEU-RKDXNWHRSA-N

$$$$
Phe_dodecyl
     RDKit          2D

 24 24  0  0  0  0  0  0  0  0999 V2000
   -7.5265    1.3480    0.0000 N   0  0  0  0  0  0  0  0  0  0  0  0
   -7.6999   -0.1420    0.0000 C   0  0  0  0  0  0  0  0  0  0  0  0
   -6.4963   -1.0371    0.0000 C   0  0  0  0  0  0  0  0  0  0  0  0
   -5.1192   -0.4424    0.0000 C   0  0  0  0  0  0  0  0  0  0  0  0
   -4.9458    1.0476    0.0000 C   0  0  0  0  0  0  0  0  0  0  0  0
   -3.5688    1.6424    0.0000 C   0  0  0  0  0  0  0  0  0  0  0  0
   -2.3652    0.7472    0.0000 C   0  0  0  0  0  0  0  0  0  0  0  0
   -2.5386   -0.7427    0.0000 C   0  0  0  0  0  0  0  0  0  0  0  0
   -3.9156   -1.3375    0.0000 C   0  0  0  0  0  0  0  0  0  0  0  0
   -0.9881    1.3420    0.0000 C   0  0  0  0  0  0  0  0  0  0  0  0
    0.2155    0.4468    0.0000 C   0  0  0  0  0  0  0  0  0  0  0  0
    1.5925    1.0416    0.0000 C   0  0  0  0  0  0  0  0  0  0  0  0
    2.7961    0.1465    0.0000 C   0  0  0  0  0  0  0  0  0  0  0  0
    4.1732    0.7412    0.0000 C   0  0  0  0  0  0  0  0  0  0  0  0
    5.3768   -0.1539    0.0000 C   0  0  0  0  0  0  0  0  0  0  0  0
    6.7538    0.4409    0.0000 C   0  0  0  0  0  0  0  0  0  0  0  0
    7.9574   -0.4543    0.0000 C   0  0  0  0  0  0  0  0  0  0  0  0
    9.3345    0.1405    0.0000 C   0  0  0  0  0  0  0  0  0  0  0  0
   10.5381   -0.7547    0.0000 C   0  0  0  0  0  0  0  0  0  0  0  0
   11.9151   -0.1599    0.0000 C   0  0  0  0  0  0  0  0  0  0  0  0
   13.1188   -1.0550    0.0000 C   0  0  0  0  0  0  0  0  0  0  0  0
   -9.0769   -0.7368    0.0000 C   0  0  0  0  0  0  0  0  0  0  0  0
   -9.2504   -2.2267    0.0000 O   0  0  0  0  0  0  0  0  0  0  0  0
  -10.2806    0.1584    0.0000 O   0  0  0  0  0  0  0  0  0  0  0  0
  2  1  1  1
  2  3  1  0
  3  4  1  0
  4  5  1  0
  5  6  2  0
  6  7  1  0
  7  8  2  0
  8  9  1  0
  7 10  1  0
 10 11  1  0
 11 12  1  0
 12 13  1  0
 13 14  1  0
 14 15  1  0
 15 16  1  0
 16 17  1  0
 17 18  1  0
 18 19  1  0
 19 20  1  0
 20 21  1  0
  2 22  1  0
 22 23  2  0
 22 24  1  0
  9  4  2  0
M  END
>  <rName>  (2090) 
Phe_dodecyl

>  <PQ_SYMBOL>  (2090) 
Phe_dodecyl

>  <FULL_NAME>  (2090) 
(S)-2-amino-3-(4-dodecylphenyl)propanoic acid

>  <IUPAC_CONDENSED>  (2090) 
Phe(dodecyl)

>  <IUPAC>  (2090) 
(2S)-2-amino-3-(4-dodecylphenyl)propanoic acid

>  <TYPE>  (2090) 
Backbone

>  <CLASS>  (2090) 
alpha

>  <ANALOG>  (2090) 
Phe

>  <MOL_WT>  (2090) 
333.516

>  <LOGP>  (2090) 
5.104400000000005

>  <TPSA>  (2090) 
63.32000000000001

>  <POPULARITY>  (2090) 
3.1

>  <PROTECTED>  (2090) 
TRUE

>  <SMILES>  (2090) 
N[C@@H](Cc1(ccc(cc1)CCCCCCCCCCCC))C(=O)O

>  <INCHIKEY>  (2090) 
CQDWPJORSILBRL-FQEVSTJZSA-N

$$$$
Phe_34diCN
     RDKit          2D

 16 16  0  0  0  0  0  0  0  0999 V2000
   -2.7430    1.6952    0.0000 N   0  0  0  0  0  0  0  0  0  0  0  0
   -3.0139    0.2198    0.0000 C   0  0  0  0  0  0  0  0  0  0  0  0
   -1.8717   -0.7525    0.0000 C   0  0  0  0  0  0  0  0  0  0  0  0
   -0.4585   -0.2494    0.0000 C   0  0  0  0  0  0  0  0  0  0  0  0
   -0.1876    1.2259    0.0000 C   0  0  0  0  0  0  0  0  0  0  0  0
    1.2255    1.7290    0.0000 C   0  0  0  0  0  0  0  0  0  0  0  0
    2.3677    0.7567    0.0000 C   0  0  0  0  0  0  0  0  0  0  0  0
    3.7809    1.2597    0.0000 C   0  0  0  0  0  0  0  0  0  0  0  0
    5.1940    1.7628    0.0000 N   0  0  0  0  0  0  0  0  0  0  0  0
    2.0968   -0.7186    0.0000 C   0  0  0  0  0  0  0  0  0  0  0  0
    3.2390   -1.6909    0.0000 C   0  0  0  0  0  0  0  0  0  0  0  0
    4.3812   -2.6632    0.0000 N   0  0  0  0  0  0  0  0  0  0  0  0
    0.6837   -1.2217    0.0000 C   0  0  0  0  0  0  0  0  0  0  0  0
   -4.4270   -0.2832    0.0000 C   0  0  0  0  0  0  0  0  0  0  0  0
   -4.6979   -1.7585    0.0000 O   0  0  0  0  0  0  0  0  0  0  0  0
   -5.5692    0.6891    0.0000 O   0  0  0  0  0  0  0  0  0  0  0  0
  2  1  1  1
  2  3  1  0
  3  4  1  0
  4  5  1  0
  5  6  2  0
  6  7  1  0
  7  8  1  0
  8  9  3  0
  7 10  2  0
 10 11  1  0
 11 12  3  0
 10 13  1  0
  2 14  1  0
 14 15  2  0
 14 16  1  0
 13  4  2  0
M  END
>  <rName>  (2091) 
Phe_34diCN

>  <PQ_SYMBOL>  (2091) 
Phe_34diCN

>  <FULL_NAME>  (2091) 
(S)-2-amino-3-(3,4-dicyanophenyl)propanoic acid

>  <IUPAC_CONDENSED>  (2091) 
Phe(3,4-diCN)

>  <IUPAC>  (2091) 
(2S)-2-amino-3-(3,4-bis(nitrilomethyl)phenyl)propanoic acid

>  <TYPE>  (2091) 
Backbone

>  <CLASS>  (2091) 
alpha

>  <ANALOG>  (2091) 
Phe

>  <MOL_WT>  (2091) 
215.212

>  <LOGP>  (2091) 
0.38436

>  <TPSA>  (2091) 
110.89999999999999

>  <POPULARITY>  (2091) 
2.5

>  <PROTECTED>  (2091) 
TRUE

>  <SMILES>  (2091) 
N[C@@H](Cc1(ccc(C#N)c(C#N)c1))C(=O)O

>  <INCHIKEY>  (2091) 
CTNQYACBNXLFKC-JTQLQIEISA-N

$$$$
Phe_2Cl_4Me
     RDKit          2D

 14 14  0  0  0  0  0  0  0  0999 V2000
   -1.7174    1.8436    0.0000 N   0  0  0  0  0  0  0  0  0  0  0  0
   -2.1036    0.3942    0.0000 C   0  0  0  0  0  0  0  0  0  0  0  0
   -1.0414   -0.6650    0.0000 C   0  0  0  0  0  0  0  0  0  0  0  0
    0.4069   -0.2747    0.0000 C   0  0  0  0  0  0  0  0  0  0  0  0
    0.7931    1.1747    0.0000 C   0  0  0  0  0  0  0  0  0  0  0  0
    2.2415    1.5649    0.0000 C   0  0  0  0  0  0  0  0  0  0  0  0
    3.3036    0.5057    0.0000 C   0  0  0  0  0  0  0  0  0  0  0  0
    4.7520    0.8960    0.0000 C   0  0  0  0  0  0  0  0  0  0  0  0
    2.9174   -0.9437    0.0000 C   0  0  0  0  0  0  0  0  0  0  0  0
    1.4691   -1.3339    0.0000 C   0  0  0  0  0  0  0  0  0  0  0  0
    1.0829   -2.7834    0.0000 Cl  0  0  0  0  0  0  0  0  0  0  0  0
   -3.5519    0.0039    0.0000 C   0  0  0  0  0  0  0  0  0  0  0  0
   -3.9381   -1.4455    0.0000 O   0  0  0  0  0  0  0  0  0  0  0  0
   -4.6140    1.0631    0.0000 O   0  0  0  0  0  0  0  0  0  0  0  0
  2  1  1  1
  2  3  1  0
  3  4  1  0
  4  5  1  0
  5  6  2  0
  6  7  1  0
  7  8  1  0
  7  9  2  0
  9 10  1  0
 10 11  1  0
  2 12  1  0
 12 13  2  0
 12 14  1  0
 10  4  2  0
M  END
>  <rName>  (2092) 
Phe_2Cl_4Me

>  <PQ_SYMBOL>  (2092) 
Phe_2Cl_4Me

>  <FULL_NAME>  (2092) 
(S)-2-amino-3-(2-chloro-4-methylphenyl)propanoic acid

>  <IUPAC_CONDENSED>  (2092) 
Phe(2-Cl,4-Me)

>  <IUPAC>  (2092) 
(2S)-2-amino-3-(2-chloro-4-methylphenyl)propanoic acid

>  <TYPE>  (2092) 
Backbone

>  <CLASS>  (2092) 
alpha

>  <ANALOG>  (2092) 
Phe

>  <MOL_WT>  (2092) 
213.66399999999996

>  <LOGP>  (2092) 
1.6028200000000001

>  <TPSA>  (2092) 
63.32000000000001

>  <POPULARITY>  (2092) 
4.4

>  <PROTECTED>  (2092) 
TRUE

>  <SMILES>  (2092) 
N[C@@H](Cc1(ccc(C)cc1Cl))C(=O)O

>  <INCHIKEY>  (2092) 
HYFOYEOZSRIHPU-VIFPVBQESA-N

$$$$
Ala_pyrid3yl_6Cl
     RDKit          2D

 13 13  0  0  0  0  0  0  0  0999 V2000
   -1.5766    1.6851    0.0000 N   0  0  0  0  0  0  0  0  0  0  0  0
   -2.0128    0.2500    0.0000 C   0  0  0  0  0  0  0  0  0  0  0  0
   -0.9880   -0.8454    0.0000 C   0  0  0  0  0  0  0  0  0  0  0  0
    0.4730   -0.5055    0.0000 C   0  0  0  0  0  0  0  0  0  0  0  0
    0.9092    0.9296    0.0000 C   0  0  0  0  0  0  0  0  0  0  0  0
    2.3702    1.2695    0.0000 C   0  0  0  0  0  0  0  0  0  0  0  0
    3.3950    0.1741    0.0000 C   0  0  0  0  0  0  0  0  0  0  0  0
    4.8560    0.5140    0.0000 Cl  0  0  0  0  0  0  0  0  0  0  0  0
    2.9588   -1.2611    0.0000 N   0  0  0  0  0  0  0  0  0  0  0  0
    1.4978   -1.6009    0.0000 C   0  0  0  0  0  0  0  0  0  0  0  0
   -3.4738   -0.0899    0.0000 C   0  0  0  0  0  0  0  0  0  0  0  0
   -3.9100   -1.5250    0.0000 O   0  0  0  0  0  0  0  0  0  0  0  0
   -4.4986    1.0055    0.0000 O   0  0  0  0  0  0  0  0  0  0  0  0
  2  1  1  1
  2  3  1  0
  3  4  1  0
  4  5  1  0
  5  6  2  0
  6  7  1  0
  7  8  1  0
  7  9  2  0
  9 10  1  0
  2 11  1  0
 11 12  2  0
 11 13  1  0
 10  4  2  0
M  END
>  <rName>  (2093) 
Ala_pyrid3yl_6Cl

>  <PQ_SYMBOL>  (2093) 
Ala_pyrid3yl_6Cl

>  <FULL_NAME>  (2093) 
(S)-2-amino-3-(6-chloropyridin-3-yl)propanoic acid

>  <IUPAC_CONDENSED>  (2093) 
Ala(pyrid-3-yl(6-Cl))

>  <IUPAC>  (2093) 
(2S)-2-amino-3-(6-chloropyridin-3-yl)propanoic acid

>  <TYPE>  (2093) 
Backbone

>  <CLASS>  (2093) 
alpha

>  <ANALOG>  (2093) 
Phe

>  <MOL_WT>  (2093) 
200.625

>  <LOGP>  (2093) 
0.6894

>  <TPSA>  (2093) 
76.21

>  <POPULARITY>  (2093) 
3.2

>  <PROTECTED>  (2093) 
TRUE

>  <SMILES>  (2093) 
N[C@@H](Cc1(ccc(Cl)nc1))C(=O)O

>  <INCHIKEY>  (2093) 
UKRRFOGHAISFEZ-LURJTMIESA-N

$$$$
Ala_pyrimid5yl_2OMe
     RDKit          2D

 14 14  0  0  0  0  0  0  0  0999 V2000
   -2.0397    1.6757    0.0000 N   0  0  0  0  0  0  0  0  0  0  0  0
   -2.4395    0.2299    0.0000 C   0  0  0  0  0  0  0  0  0  0  0  0
   -1.3873   -0.8392    0.0000 C   0  0  0  0  0  0  0  0  0  0  0  0
    0.0646   -0.4625    0.0000 C   0  0  0  0  0  0  0  0  0  0  0  0
    0.4644    0.9832    0.0000 C   0  0  0  0  0  0  0  0  0  0  0  0
    1.9164    1.3598    0.0000 N   0  0  0  0  0  0  0  0  0  0  0  0
    2.9685    0.2907    0.0000 C   0  0  0  0  0  0  0  0  0  0  0  0
    4.4205    0.6674    0.0000 O   0  0  0  0  0  0  0  0  0  0  0  0
    5.4726   -0.4017    0.0000 C   0  0  0  0  0  0  0  0  0  0  0  0
    2.5687   -1.1550    0.0000 N   0  0  0  0  0  0  0  0  0  0  0  0
    1.1168   -1.5316    0.0000 C   0  0  0  0  0  0  0  0  0  0  0  0
   -3.8914   -0.1467    0.0000 C   0  0  0  0  0  0  0  0  0  0  0  0
   -4.2912   -1.5924    0.0000 O   0  0  0  0  0  0  0  0  0  0  0  0
   -4.9436    0.9224    0.0000 O   0  0  0  0  0  0  0  0  0  0  0  0
  2  1  1  1
  2  3  1  0
  3  4  1  0
  4  5  1  0
  5  6  2  0
  6  7  1  0
  7  8  1  0
  8  9  1  0
  7 10  2  0
 10 11  1  0
  2 12  1  0
 12 13  2  0
 12 14  1  0
 11  4  2  0
M  END
>  <rName>  (2094) 
Ala_pyrimid5yl_2OMe

>  <PQ_SYMBOL>  (2094) 
Ala_pyrimid5yl_2OMe

>  <FULL_NAME>  (2094) 
(S)-2-amino-3-(2-methoxypyrimidin-5-yl)propanoic acid

>  <IUPAC_CONDENSED>  (2094) 
Ala(pyrimid-5-yl(2-OMe))

>  <IUPAC>  (2094) 
(2S)-2-amino-3-(2-methoxypyrimidin-5-yl)propanoic acid

>  <TYPE>  (2094) 
Backbone

>  <CLASS>  (2094) 
alpha

>  <ANALOG>  (2094) 
Phe

>  <MOL_WT>  (2094) 
197.194

>  <LOGP>  (2094) 
-0.5604

>  <TPSA>  (2094) 
98.33

>  <POPULARITY>  (2094) 
2.8

>  <PROTECTED>  (2094) 
TRUE

>  <SMILES>  (2094) 
N[C@@H](Cc1(cnc(OC)nc1))C(=O)O

>  <INCHIKEY>  (2094) 
VEYAOPBCJJVULL-LURJTMIESA-N

$$$$
Phe_4Ph_4pentyl
     RDKit          2D

 23 24  0  0  0  0  0  0  0  0999 V2000
   -5.4826    1.6024    0.0000 N   0  0  0  0  0  0  0  0  0  0  0  0
   -5.9769    0.1862    0.0000 C   0  0  0  0  0  0  0  0  0  0  0  0
   -4.9975   -0.9500    0.0000 C   0  0  0  0  0  0  0  0  0  0  0  0
   -3.5239   -0.6698    0.0000 C   0  0  0  0  0  0  0  0  0  0  0  0
   -3.0296    0.7464    0.0000 C   0  0  0  0  0  0  0  0  0  0  0  0
   -1.5560    1.0265    0.0000 C   0  0  0  0  0  0  0  0  0  0  0  0
   -0.5766   -0.1096    0.0000 C   0  0  0  0  0  0  0  0  0  0  0  0
   -1.0709   -1.5259    0.0000 C   0  0  0  0  0  0  0  0  0  0  0  0
   -2.5445   -1.8060    0.0000 C   0  0  0  0  0  0  0  0  0  0  0  0
    0.8970    0.1705    0.0000 C   0  0  0  0  0  0  0  0  0  0  0  0
    1.8764   -0.9656    0.0000 C   0  0  0  0  0  0  0  0  0  0  0  0
    3.3500   -0.6855    0.0000 C   0  0  0  0  0  0  0  0  0  0  0  0
    3.8442    0.7307    0.0000 C   0  0  0  0  0  0  0  0  0  0  0  0
    2.8648    1.8669    0.0000 C   0  0  0  0  0  0  0  0  0  0  0  0
    1.3912    1.5867    0.0000 C   0  0  0  0  0  0  0  0  0  0  0  0
    5.3178    1.0109    0.0000 C   0  0  0  0  0  0  0  0  0  0  0  0
    6.2972   -0.1253    0.0000 C   0  0  0  0  0  0  0  0  0  0  0  0
    7.7708    0.1548    0.0000 C   0  0  0  0  0  0  0  0  0  0  0  0
    8.7502   -0.9813    0.0000 C   0  0  0  0  0  0  0  0  0  0  0  0
   10.2238   -0.7012    0.0000 C   0  0  0  0  0  0  0  0  0  0  0  0
   -7.4505   -0.0939    0.0000 C   0  0  0  0  0  0  0  0  0  0  0  0
   -7.9447   -1.5102    0.0000 O   0  0  0  0  0  0  0  0  0  0  0  0
   -8.4299    1.0422    0.0000 O   0  0  0  0  0  0  0  0  0  0  0  0
  2  1  1  1
  2  3  1  0
  3  4  1  0
  4  5  1  0
  5  6  2  0
  6  7  1  0
  7  8  2  0
  8  9  1  0
  7 10  1  0
 10 11  1  0
 11 12  2  0
 12 13  1  0
 13 14  2  0
 14 15  1  0
 13 16  1  0
 16 17  1  0
 17 18  1  0
 18 19  1  0
 19 20  1  0
  2 21  1  0
 21 22  2  0
 21 23  1  0
  9  4  2  0
 15 10  2  0
M  END
>  <rName>  (2095) 
Phe_4Ph_4pentyl

>  <PQ_SYMBOL>  (2095) 
Phe_4Ph_4pentyl

>  <FULL_NAME>  (2095) 
(S)-2-amino-3-(4'-pentyl-[1,1'-biphenyl]-4-yl)propanoic acid

>  <IUPAC_CONDENSED>  (2095) 
Phe(4-Ph(4-pentyl))

>  <IUPAC>  (2095) 
(2S)-2-amino-3-(4-(4-pentylphenyl)phenyl)propanoic acid

>  <TYPE>  (2095) 
Backbone

>  <CLASS>  (2095) 
alpha

>  <ANALOG>  (2095) 
Phe

>  <MOL_WT>  (2095) 
311.425

>  <LOGP>  (2095) 
4.040700000000003

>  <TPSA>  (2095) 
63.32000000000001

>  <POPULARITY>  (2095) 
3

>  <PROTECTED>  (2095) 
TRUE

>  <SMILES>  (2095) 
N[C@@H](Cc1(ccc(cc1)c2(ccc(cc2)CCCCC)))C(=O)O

>  <INCHIKEY>  (2095) 
DRQZIRXJBUEPGX-IBGZPJMESA-N

$$$$
Ala_pyrimid2yl_5CF3
     RDKit          2D

 16 16  0  0  0  0  0  0  0  0999 V2000
   -2.5021    1.6866    0.0000 N   0  0  0  0  0  0  0  0  0  0  0  0
   -3.0051    0.2735    0.0000 C   0  0  0  0  0  0  0  0  0  0  0  0
   -2.0328   -0.8687    0.0000 C   0  0  0  0  0  0  0  0  0  0  0  0
   -0.5574   -0.5977    0.0000 C   0  0  0  0  0  0  0  0  0  0  0  0
   -0.0545    0.8155    0.0000 N   0  0  0  0  0  0  0  0  0  0  0  0
    1.4208    1.0865    0.0000 C   0  0  0  0  0  0  0  0  0  0  0  0
    2.3932   -0.0557    0.0000 C   0  0  0  0  0  0  0  0  0  0  0  0
    1.8902   -1.4688    0.0000 C   0  0  0  0  0  0  0  0  0  0  0  0
    0.4149   -1.7398    0.0000 N   0  0  0  0  0  0  0  0  0  0  0  0
    3.8685    0.2153    0.0000 C   0  0  0  0  0  0  0  0  0  0  0  0
    5.3438    0.4863    0.0000 F   0  0  0  0  0  0  0  0  0  0  0  0
    4.1395   -1.2600    0.0000 F   0  0  0  0  0  0  0  0  0  0  0  0
    3.5975    1.6906    0.0000 F   0  0  0  0  0  0  0  0  0  0  0  0
   -4.4804    0.0025    0.0000 C   0  0  0  0  0  0  0  0  0  0  0  0
   -4.9834   -1.4107    0.0000 O   0  0  0  0  0  0  0  0  0  0  0  0
   -5.4528    1.1446    0.0000 O   0  0  0  0  0  0  0  0  0  0  0  0
  2  1  1  1
  2  3  1  0
  3  4  1  0
  4  5  1  0
  5  6  2  0
  6  7  1  0
  7  8  2  0
  8  9  1  0
  7 10  1  0
 10 11  1  0
 10 12  1  0
 10 13  1  0
  2 14  1  0
 14 15  2  0
 14 16  1  0
  9  4  2  0
M  END
>  <rName>  (2096) 
Ala_pyrimid2yl_5CF3

>  <PQ_SYMBOL>  (2096) 
Ala_pyrimid2yl_5CF3

>  <FULL_NAME>  (2096) 
(S)-2-amino-3-(5-(trifluoromethyl)pyrimidin-2-yl)propanoic acid

>  <IUPAC_CONDENSED>  (2096) 
Ala(pyrimid-2-yl(5-CF3))

>  <IUPAC>  (2096) 
(2S)-2-amino-3-(5-(trifluoromethyl)pyrimidin-2-yl)propanoic acid

>  <TYPE>  (2096) 
Backbone

>  <CLASS>  (2096) 
alpha

>  <ANALOG>  (2096) 
Phe

>  <MOL_WT>  (2096) 
235.16499999999996

>  <LOGP>  (2096) 
0.44979999999999953

>  <TPSA>  (2096) 
89.10000000000001

>  <POPULARITY>  (2096) 
2.4

>  <PROTECTED>  (2096) 
TRUE

>  <SMILES>  (2096) 
N[C@@H](Cc1(ncc(cn1)C(F)(F)F))C(=O)O

>  <INCHIKEY>  (2096) 
AYVJTVGTIXPXRW-YFKPBYRVSA-N

$$$$
Phe_3MeOH
     RDKit          2D

 14 14  0  0  0  0  0  0  0  0999 V2000
   -2.2742    1.6194    0.0000 N   0  0  0  0  0  0  0  0  0  0  0  0
   -2.3172    0.1200    0.0000 C   0  0  0  0  0  0  0  0  0  0  0  0
   -1.0402   -0.6669    0.0000 C   0  0  0  0  0  0  0  0  0  0  0  0
    0.2798    0.0456    0.0000 C   0  0  0  0  0  0  0  0  0  0  0  0
    0.3228    1.5450    0.0000 C   0  0  0  0  0  0  0  0  0  0  0  0
    1.6428    2.2574    0.0000 C   0  0  0  0  0  0  0  0  0  0  0  0
    2.9198    1.4705    0.0000 C   0  0  0  0  0  0  0  0  0  0  0  0
    2.8768   -0.0289    0.0000 C   0  0  0  0  0  0  0  0  0  0  0  0
    1.5568   -0.7414    0.0000 C   0  0  0  0  0  0  0  0  0  0  0  0
    4.1538   -0.8158    0.0000 C   0  0  0  0  0  0  0  0  0  0  0  0
    4.1108   -2.3152    0.0000 O   0  0  0  0  0  0  0  0  0  0  0  0
   -3.6372   -0.5924    0.0000 C   0  0  0  0  0  0  0  0  0  0  0  0
   -3.6802   -2.0918    0.0000 O   0  0  0  0  0  0  0  0  0  0  0  0
   -4.9142    0.1945    0.0000 O   0  0  0  0  0  0  0  0  0  0  0  0
  2  1  1  1
  2  3  1  0
  3  4  1  0
  4  5  2  0
  5  6  1  0
  6  7  2  0
  7  8  1  0
  8  9  2  0
  8 10  1  0
 10 11  1  0
  2 12  1  0
 12 13  2  0
 12 14  1  0
  9  4  1  0
M  END
>  <rName>  (2097) 
Phe_3MeOH

>  <PQ_SYMBOL>  (2097) 
Phe_3MeOH

>  <FULL_NAME>  (2097) 
(S)-2-amino-3-(3-(hydroxymethyl)phenyl)propanoic acid

>  <IUPAC_CONDENSED>  (2097) 
Phe(3-MeOH)

>  <IUPAC>  (2097) 
(2S)-2-amino-3-(3-(hydroxymethyl)phenyl)propanoic acid

>  <TYPE>  (2097) 
Backbone

>  <CLASS>  (2097) 
alpha

>  <ANALOG>  (2097) 
Phe

>  <MOL_WT>  (2097) 
195.21799999999996

>  <LOGP>  (2097) 
0.13329999999999997

>  <TPSA>  (2097) 
83.55

>  <POPULARITY>  (2097) 
6.3

>  <PROTECTED>  (2097) 
TRUE

>  <SMILES>  (2097) 
N[C@@H](Cc1(cccc(c1)CO))C(=O)O

>  <INCHIKEY>  (2097) 
OGLFMTLLZNGZPP-VIFPVBQESA-N

$$$$
Phe_2Me_6NO2
     RDKit          2D

 16 16  0  0  0  0  0  0  0  0999 V2000
   -2.0704    1.6856    0.0000 N   0  0  0  0  0  0  0  0  0  0  0  0
   -2.0347    0.1860    0.0000 C   0  0  0  0  0  0  0  0  0  0  0  0
   -0.7182   -0.5329    0.0000 C   0  0  0  0  0  0  0  0  0  0  0  0
    0.5626    0.2478    0.0000 C   0  0  0  0  0  0  0  0  0  0  0  0
    0.5269    1.7474    0.0000 C   0  0  0  0  0  0  0  0  0  0  0  0
   -0.7896    2.4663    0.0000 C   0  0  0  0  0  0  0  0  0  0  0  0
    1.8077    2.5281    0.0000 C   0  0  0  0  0  0  0  0  0  0  0  0
    3.1242    1.8092    0.0000 C   0  0  0  0  0  0  0  0  0  0  0  0
    3.1599    0.3096    0.0000 C   0  0  0  0  0  0  0  0  0  0  0  0
    1.8791   -0.4710    0.0000 C   0  0  0  0  0  0  0  0  0  0  0  0
    1.9148   -1.9706    0.0000 N   0  0  0  0  0  0  0  0  0  0  0  0
    0.6340   -2.7513    0.0000 O   0  0  0  0  0  0  0  0  0  0  0  0
    3.2313   -2.6895    0.0000 O   0  0  0  0  0  0  0  0  0  0  0  0
   -3.3156   -0.5947    0.0000 C   0  0  0  0  0  0  0  0  0  0  0  0
   -3.2799   -2.0943    0.0000 O   0  0  0  0  0  0  0  0  0  0  0  0
   -4.6321    0.1242    0.0000 O   0  0  0  0  0  0  0  0  0  0  0  0
  2  1  1  1
  2  3  1  0
  3  4  1  0
  4  5  2  0
  5  6  1  0
  5  7  1  0
  7  8  2  0
  8  9  1  0
  9 10  2  0
 10 11  1  0
 11 12  2  0
 11 13  1  0
  2 14  1  0
 14 15  2  0
 14 16  1  0
 10  4  1  0
M  CHG  2  11   1  13  -1
M  END
>  <rName>  (2098) 
Phe_2Me_6NO2

>  <PQ_SYMBOL>  (2098) 
Phe_2Me_6NO2

>  <FULL_NAME>  (2098) 
(S)-2-amino-3-(2-methyl-6-nitrophenyl)propanoic acid

>  <IUPAC_CONDENSED>  (2098) 
Phe(2-Me,6-NO2)

>  <IUPAC>  (2098) 
(2S)-2-amino-3-(2-methyl-6-nitrophenyl)propanoic acid

>  <TYPE>  (2098) 
Backbone

>  <CLASS>  (2098) 
alpha

>  <ANALOG>  (2098) 
Phe

>  <MOL_WT>  (2098) 
224.21599999999995

>  <LOGP>  (2098) 
0.8576200000000003

>  <TPSA>  (2098) 
106.46

>  <POPULARITY>  (2098) 
2.9

>  <PROTECTED>  (2098) 
TRUE

>  <SMILES>  (2098) 
N[C@@H](Cc1(c(C)cccc1[N+](=O)[O-]))C(=O)O

>  <INCHIKEY>  (2098) 
CQWVFQSIMLVFKH-QMMMGPOBSA-N

$$$$
Ala_thien2yl_5Me
     RDKit          2D

 12 12  0  0  0  0  0  0  0  0999 V2000
   -1.1070    1.6556    0.0000 N   0  0  0  0  0  0  0  0  0  0  0  0
   -1.6374    0.2525    0.0000 C   0  0  0  0  0  0  0  0  0  0  0  0
   -0.6875   -0.9084    0.0000 C   0  0  0  0  0  0  0  0  0  0  0  0
    0.7928   -0.6662    0.0000 C   0  0  0  0  0  0  0  0  0  0  0  0
    1.8589   -1.7215    0.0000 C   0  0  0  0  0  0  0  0  0  0  0  0
    3.1919   -1.0337    0.0000 C   0  0  0  0  0  0  0  0  0  0  0  0
    2.9497    0.4466    0.0000 C   0  0  0  0  0  0  0  0  0  0  0  0
    4.0050    1.5127    0.0000 C   0  0  0  0  0  0  0  0  0  0  0  0
    1.4670    0.6737    0.0000 S   0  0  0  0  0  0  0  0  0  0  0  0
   -3.1177    0.0103    0.0000 C   0  0  0  0  0  0  0  0  0  0  0  0
   -3.6481   -1.3928    0.0000 O   0  0  0  0  0  0  0  0  0  0  0  0
   -4.0676    1.1712    0.0000 O   0  0  0  0  0  0  0  0  0  0  0  0
  2  1  1  1
  2  3  1  0
  3  4  1  0
  4  5  2  0
  5  6  1  0
  6  7  2  0
  7  8  1  0
  7  9  1  0
  2 10  1  0
 10 11  2  0
 10 12  1  0
  9  4  1  0
M  END
>  <rName>  (2099) 
Ala_thien2yl_5Me

>  <PQ_SYMBOL>  (2099) 
Ala_thien2yl_5Me

>  <FULL_NAME>  (2099) 
(S)-2-amino-3-(5-methylthiophen-2-yl)propanoic acid

>  <IUPAC_CONDENSED>  (2099) 
Ala(thien-2-yl(5-Me))

>  <IUPAC>  (2099) 
(2S)-2-amino-3-(5-methylthiophen-2-yl)propanoic acid

>  <TYPE>  (2099) 
Backbone

>  <CLASS>  (2099) 
alpha

>  <ANALOG>  (2099) 
Phe

>  <MOL_WT>  (2099) 
185.24799999999996

>  <LOGP>  (2099) 
1.01092

>  <TPSA>  (2099) 
63.32000000000001

>  <POPULARITY>  (2099) 
4.4

>  <PROTECTED>  (2099) 
TRUE

>  <SMILES>  (2099) 
N[C@@H](Cc1(ccc(C)s1))C(=O)O

>  <INCHIKEY>  (2099) 
KNSCRQAEJYEVMU-ZETCQYMHSA-N

$$$$
Phe_3F_4CN
     RDKit          2D

 15 15  0  0  0  0  0  0  0  0999 V2000
   -2.3016    1.7358    0.0000 N   0  0  0  0  0  0  0  0  0  0  0  0
   -2.7065    0.2914    0.0000 C   0  0  0  0  0  0  0  0  0  0  0  0
   -1.6581   -0.7814    0.0000 C   0  0  0  0  0  0  0  0  0  0  0  0
   -0.2049   -0.4099    0.0000 C   0  0  0  0  0  0  0  0  0  0  0  0
    0.2001    1.0344    0.0000 C   0  0  0  0  0  0  0  0  0  0  0  0
    1.6533    1.4059    0.0000 C   0  0  0  0  0  0  0  0  0  0  0  0
    2.7017    0.3330    0.0000 C   0  0  0  0  0  0  0  0  0  0  0  0
    4.1550    0.7045    0.0000 C   0  0  0  0  0  0  0  0  0  0  0  0
    5.6082    1.0760    0.0000 N   0  0  0  0  0  0  0  0  0  0  0  0
    2.2968   -1.1113    0.0000 C   0  0  0  0  0  0  0  0  0  0  0  0
    3.3451   -2.1841    0.0000 F   0  0  0  0  0  0  0  0  0  0  0  0
    0.8435   -1.4827    0.0000 C   0  0  0  0  0  0  0  0  0  0  0  0
   -4.1598   -0.0800    0.0000 C   0  0  0  0  0  0  0  0  0  0  0  0
   -4.5647   -1.5243    0.0000 O   0  0  0  0  0  0  0  0  0  0  0  0
   -5.2081    0.9928    0.0000 O   0  0  0  0  0  0  0  0  0  0  0  0
  2  1  1  1
  2  3  1  0
  3  4  1  0
  4  5  1  0
  5  6  2  0
  6  7  1  0
  7  8  1  0
  8  9  3  0
  7 10  2  0
 10 11  1  0
 10 12  1  0
  2 13  1  0
 13 14  2  0
 13 15  1  0
 12  4  2  0
M  END
>  <rName>  (2100) 
Phe_3F_4CN

>  <PQ_SYMBOL>  (2100) 
Phe_3F_4CN

>  <FULL_NAME>  (2100) 
(S)-2-amino-3-(4-cyano-3-fluorophenyl)propanoic acid

>  <IUPAC_CONDENSED>  (2100) 
Phe(3-F,4-CN)

>  <IUPAC>  (2100) 
(2S)-2-amino-3-(3-fluoro-4-(nitrilomethyl)phenyl)propanoic acid

>  <TYPE>  (2100) 
Backbone

>  <CLASS>  (2100) 
alpha

>  <ANALOG>  (2100) 
Phe

>  <MOL_WT>  (2100) 
208.19199999999998

>  <LOGP>  (2100) 
0.6517800000000002

>  <TPSA>  (2100) 
87.11

>  <POPULARITY>  (2100) 
2.8

>  <PROTECTED>  (2100) 
TRUE

>  <SMILES>  (2100) 
N[C@@H](Cc1(ccc(C#N)c(F)c1))C(=O)O

>  <INCHIKEY>  (2100) 
FJKFNTQADLDHBJ-VIFPVBQESA-N

$$$$
bAla_2ROH_3RPh_3F
     RDKit          2D

 14 14  0  0  0  0  0  0  0  0999 V2000
   -1.0270   -2.0473    0.0000 N   0  0  0  0  0  0  0  0  0  0  0  0
   -0.7622   -0.5709    0.0000 C   0  0  0  0  0  0  0  0  0  0  0  0
    0.6488   -0.0619    0.0000 C   0  0  0  0  0  0  0  0  0  0  0  0
    0.9135    1.4146    0.0000 C   0  0  0  0  0  0  0  0  0  0  0  0
    2.3245    1.9235    0.0000 C   0  0  0  0  0  0  0  0  0  0  0  0
    3.4708    0.9560    0.0000 C   0  0  0  0  0  0  0  0  0  0  0  0
    3.2061   -0.5204    0.0000 C   0  0  0  0  0  0  0  0  0  0  0  0
    4.3524   -1.4879    0.0000 F   0  0  0  0  0  0  0  0  0  0  0  0
    1.7951   -1.0294    0.0000 C   0  0  0  0  0  0  0  0  0  0  0  0
   -1.9085    0.3966    0.0000 C   0  0  0  0  0  0  0  0  0  0  0  0
   -1.6438    1.8731    0.0000 O   0  0  0  0  0  0  0  0  0  0  0  0
   -3.3195   -0.1124    0.0000 C   0  0  0  0  0  0  0  0  0  0  0  0
   -3.5842   -1.5888    0.0000 O   0  0  0  0  0  0  0  0  0  0  0  0
   -4.4658    0.8551    0.0000 O   0  0  0  0  0  0  0  0  0  0  0  0
  2  1  1  1
  2  3  1  0
  3  4  2  0
  4  5  1  0
  5  6  2  0
  6  7  1  0
  7  8  1  0
  7  9  2  0
  2 10  1  0
 10 11  1  6
 10 12  1  0
 12 13  2  0
 12 14  1  0
  9  3  1  0
M  END
>  <rName>  (2101) 
bAla_2ROH_3RPh_3F

>  <PQ_SYMBOL>  (2101) 
bAla_2ROH_3RPh_3F

>  <FULL_NAME>  (2101) 
(2R,3R)-3-amino-3-(3-fluorophenyl)-2-hydroxypropanoic acid

>  <IUPAC_CONDENSED>  (2101) 
bAla(2R-OH,3R-Ph(3-F))

>  <IUPAC>  (2101) 
(2R,3R)-3-amino-3-(3-fluorophenyl)-2-hydroxypropanoic acid

>  <TYPE>  (2101) 
Backbone

>  <CLASS>  (2101) 
beta

>  <ANALOG>  (2101) 
X

>  <MOL_WT>  (2101) 
199.18099999999998

>  <LOGP>  (2101) 
0.2710000000000002

>  <TPSA>  (2101) 
83.55

>  <POPULARITY>  (2101) 
4.9

>  <PROTECTED>  (2101) 
TRUE

>  <SMILES>  (2101) 
N[C@H](c1(cccc(F)c1))[C@@H](O)C(=O)O

>  <INCHIKEY>  (2101) 
XVPSWGNJNOSORO-HTQZYQBOSA-N

$$$$
Phe_3Me_4CO2H
     RDKit          2D

 16 16  0  0  0  0  0  0  0  0999 V2000
   -2.5421    1.7204    0.0000 N   0  0  0  0  0  0  0  0  0  0  0  0
   -2.9632    0.2807    0.0000 C   0  0  0  0  0  0  0  0  0  0  0  0
   -1.9270   -0.8038    0.0000 C   0  0  0  0  0  0  0  0  0  0  0  0
   -0.4696   -0.4487    0.0000 C   0  0  0  0  0  0  0  0  0  0  0  0
   -0.0485    0.9910    0.0000 C   0  0  0  0  0  0  0  0  0  0  0  0
    1.4089    1.3461    0.0000 C   0  0  0  0  0  0  0  0  0  0  0  0
    2.4451    0.2616    0.0000 C   0  0  0  0  0  0  0  0  0  0  0  0
    3.9024    0.6167    0.0000 C   0  0  0  0  0  0  0  0  0  0  0  0
    4.9387   -0.4678    0.0000 O   0  0  0  0  0  0  0  0  0  0  0  0
    4.3236    2.0564    0.0000 O   0  0  0  0  0  0  0  0  0  0  0  0
    2.0240   -1.1781    0.0000 C   0  0  0  0  0  0  0  0  0  0  0  0
    3.0602   -2.2626    0.0000 C   0  0  0  0  0  0  0  0  0  0  0  0
    0.5666   -1.5332    0.0000 C   0  0  0  0  0  0  0  0  0  0  0  0
   -4.4206   -0.0744    0.0000 C   0  0  0  0  0  0  0  0  0  0  0  0
   -4.8417   -1.5141    0.0000 O   0  0  0  0  0  0  0  0  0  0  0  0
   -5.4568    1.0101    0.0000 O   0  0  0  0  0  0  0  0  0  0  0  0
  2  1  1  1
  2  3  1  0
  3  4  1  0
  4  5  1  0
  5  6  2  0
  6  7  1  0
  7  8  1  0
  8  9  2  0
  8 10  1  0
  7 11  2  0
 11 12  1  0
 11 13  1  0
  2 14  1  0
 14 15  2  0
 14 16  1  0
 13  4  2  0
M  END
>  <rName>  (2102) 
Phe_3Me_4CO2H

>  <PQ_SYMBOL>  (2102) 
Phe_3Me_4CO2H

>  <FULL_NAME>  (2102) 
(S)-4-(2-amino-2-carboxyethyl)-2-methylbenzoic acid

>  <IUPAC_CONDENSED>  (2102) 
Phe(3-Me,4-CO2H)

>  <IUPAC>  (2102) 
4-((2S)-2-amino-3-hydroxy-3-oxopropyl)-2-methylbenzene-1-carboxylic acid

>  <TYPE>  (2102) 
Backbone

>  <CLASS>  (2102) 
alpha

>  <ANALOG>  (2102) 
Phe

>  <MOL_WT>  (2102) 
223.22799999999998

>  <LOGP>  (2102) 
0.64762

>  <TPSA>  (2102) 
100.62000000000002

>  <POPULARITY>  (2102) 
3.3

>  <PROTECTED>  (2102) 
TRUE

>  <SMILES>  (2102) 
N[C@@H](Cc1(ccc(C(=O)O)c(C)c1))C(=O)O

>  <INCHIKEY>  (2102) 
YVCMIJOXXDSFSD-VIFPVBQESA-N

$$$$
Trp_7Aza_Aza
     RDKit          2D

 15 16  0  0  0  0  0  0  0  0999 V2000
   -2.6183   -1.7023    0.0000 N   0  0  0  0  0  0  0  0  0  0  0  0
   -2.5622   -0.2034    0.0000 C   0  0  0  0  0  0  0  0  0  0  0  0
   -1.2360    0.4975    0.0000 C   0  0  0  0  0  0  0  0  0  0  0  0
    0.0341   -0.3006    0.0000 C   0  0  0  0  0  0  0  0  0  0  0  0
    0.1349   -1.7972    0.0000 N   0  0  0  0  0  0  0  0  0  0  0  0
    1.5895   -2.1637    0.0000 N   0  0  0  0  0  0  0  0  0  0  0  0
    2.3875   -0.8937    0.0000 C   0  0  0  0  0  0  0  0  0  0  0  0
    3.8654   -0.6369    0.0000 N   0  0  0  0  0  0  0  0  0  0  0  0
    4.3820    0.7713    0.0000 C   0  0  0  0  0  0  0  0  0  0  0  0
    3.4207    1.9228    0.0000 C   0  0  0  0  0  0  0  0  0  0  0  0
    1.9429    1.6661    0.0000 C   0  0  0  0  0  0  0  0  0  0  0  0
    1.4263    0.2578    0.0000 C   0  0  0  0  0  0  0  0  0  0  0  0
   -3.8322    0.5947    0.0000 C   0  0  0  0  0  0  0  0  0  0  0  0
   -3.7761    2.0937    0.0000 O   0  0  0  0  0  0  0  0  0  0  0  0
   -5.1584   -0.1061    0.0000 O   0  0  0  0  0  0  0  0  0  0  0  0
  2  1  1  6
  2  3  1  0
  3  4  1  0
  4  5  2  0
  5  6  1  0
  6  7  1  0
  7  8  2  0
  8  9  1  0
  9 10  2  0
 10 11  1  0
 11 12  2  0
  2 13  1  0
 13 14  2  0
 13 15  1  0
 12  7  1  0
 12  4  1  0
M  END
>  <rName>  (2103) 
Trp_7Aza_Aza

>  <PQ_SYMBOL>  (2103) 
Trp_7Aza_Aza

>  <FULL_NAME>  (2103) 
(S)-2-amino-3-(1H-pyrazolo[3,4-b]pyridin-3-yl)propanoic acid

>  <IUPAC_CONDENSED>  (2103) 
Trp(7-Aza,Aza)

>  <IUPAC>  (2103) 
(2S)-2-amino-3-(2,8,9-triazabicyclo[4.3.0]nona-1,3,5,7-tetraen-7-yl)propanoic acid

>  <TYPE>  (2103) 
Backbone

>  <CLASS>  (2103) 
alpha

>  <ANALOG>  (2103) 
Phe

>  <MOL_WT>  (2103) 
206.205

>  <LOGP>  (2103) 
-0.08770000000000083

>  <TPSA>  (2103) 
104.89

>  <POPULARITY>  (2103) 
2.2

>  <PROTECTED>  (2103) 
TRUE

>  <SMILES>  (2103) 
N[C@@H](Cc2(n[nH]c1(ncccc12)))C(=O)O

>  <INCHIKEY>  (2103) 
UMHZCXAVXBVPJL-LURJTMIESA-N

$$$$
Phe_3OBn_4Cbz
     RDKit          2D

 30 32  0  0  0  0  0  0  0  0999 V2000
   -6.3239    1.4589    0.0000 N   0  0  0  0  0  0  0  0  0  0  0  0
   -6.2425   -0.0389    0.0000 C   0  0  0  0  0  0  0  0  0  0  0  0
   -4.9046   -0.7173    0.0000 C   0  0  0  0  0  0  0  0  0  0  0  0
   -3.6482    0.1021    0.0000 C   0  0  0  0  0  0  0  0  0  0  0  0
   -3.7296    1.5999    0.0000 C   0  0  0  0  0  0  0  0  0  0  0  0
   -2.4732    2.4193    0.0000 C   0  0  0  0  0  0  0  0  0  0  0  0
   -1.1354    1.7409    0.0000 C   0  0  0  0  0  0  0  0  0  0  0  0
    0.1210    2.5603    0.0000 C   0  0  0  0  0  0  0  0  0  0  0  0
    0.0396    4.0581    0.0000 O   0  0  0  0  0  0  0  0  0  0  0  0
    1.4589    1.8820    0.0000 O   0  0  0  0  0  0  0  0  0  0  0  0
    2.7153    2.7014    0.0000 C   0  0  0  0  0  0  0  0  0  0  0  0
    4.0531    2.0230    0.0000 C   0  0  0  0  0  0  0  0  0  0  0  0
    4.1345    0.5252    0.0000 C   0  0  0  0  0  0  0  0  0  0  0  0
    5.4723   -0.1532    0.0000 C   0  0  0  0  0  0  0  0  0  0  0  0
    6.7288    0.6662    0.0000 C   0  0  0  0  0  0  0  0  0  0  0  0
    6.6473    2.1640    0.0000 C   0  0  0  0  0  0  0  0  0  0  0  0
    5.3095    2.8424    0.0000 C   0  0  0  0  0  0  0  0  0  0  0  0
   -1.0540    0.2432    0.0000 C   0  0  0  0  0  0  0  0  0  0  0  0
    0.2838   -0.4352    0.0000 O   0  0  0  0  0  0  0  0  0  0  0  0
    0.3653   -1.9330    0.0000 C   0  0  0  0  0  0  0  0  0  0  0  0
    1.7031   -2.6114    0.0000 C   0  0  0  0  0  0  0  0  0  0  0  0
    1.7845   -4.1092    0.0000 C   0  0  0  0  0  0  0  0  0  0  0  0
    3.1223   -4.7876    0.0000 C   0  0  0  0  0  0  0  0  0  0  0  0
    4.3788   -3.9682    0.0000 C   0  0  0  0  0  0  0  0  0  0  0  0
    4.2973   -2.4704    0.0000 C   0  0  0  0  0  0  0  0  0  0  0  0
    2.9595   -1.7920    0.0000 C   0  0  0  0  0  0  0  0  0  0  0  0
   -2.3104   -0.5762    0.0000 C   0  0  0  0  0  0  0  0  0  0  0  0
   -7.4989   -0.8583    0.0000 C   0  0  0  0  0  0  0  0  0  0  0  0
   -7.4175   -2.3561    0.0000 O   0  0  0  0  0  0  0  0  0  0  0  0
   -8.8367   -0.1799    0.0000 O   0  0  0  0  0  0  0  0  0  0  0  0
  2  1  1  1
  2  3  1  0
  3  4  1  0
  4  5  1  0
  5  6  2  0
  6  7  1  0
  7  8  1  0
  8  9  2  0
  8 10  1  0
 10 11  1  0
 11 12  1  0
 12 13  2  0
 13 14  1  0
 14 15  2  0
 15 16  1  0
 16 17  2  0
  7 18  2  0
 18 19  1  0
 19 20  1  0
 20 21  1  0
 21 22  2  0
 22 23  1  0
 23 24  2  0
 24 25  1  0
 25 26  2  0
 18 27  1  0
  2 28  1  0
 28 29  2  0
 28 30  1  0
 17 12  1  0
 26 21  1  0
 27  4  2  0
M  END
>  <rName>  (2104) 
Phe_3OBn_4Cbz

>  <PQ_SYMBOL>  (2104) 
Phe_3OBn_4Cbz

>  <FULL_NAME>  (2104) 
(S)-2-amino-3-(3-(benzyloxy)-4-((benzyloxy)carbonyl)phenyl)propanoic acid

>  <IUPAC_CONDENSED>  (2104) 
Phe(3-OBn,4-Cbz)

>  <IUPAC>  (2104) 
(2S)-2-amino-3-(3-benzyloxy-4-(benzyloxyformyl)phenyl)propanoic acid

>  <TYPE>  (2104) 
Backbone

>  <CLASS>  (2104) 
alpha

>  <ANALOG>  (2104) 
Tyr

>  <MOL_WT>  (2104) 
405.45000000000016

>  <LOGP>  (2104) 
3.5770000000000026

>  <TPSA>  (2104) 
98.85000000000001

>  <POPULARITY>  (2104) 
2.2

>  <PROTECTED>  (2104) 
TRUE

>  <SMILES>  (2104) 
N[C@@H](Cc3(ccc(C(=O)OCc1(ccccc1))c(OCc2(ccccc2))c3))C(=O)O

>  <INCHIKEY>  (2104) 
YZEQLHWHGJPHTM-NRFANRHFSA-N

$$$$
Phe_35diCl_4OMe
     RDKit          2D

 16 16  0  0  0  0  0  0  0  0999 V2000
   -2.4330    1.6061    0.0000 N   0  0  0  0  0  0  0  0  0  0  0  0
   -2.8129    0.1551    0.0000 C   0  0  0  0  0  0  0  0  0  0  0  0
   -1.7462   -0.8995    0.0000 C   0  0  0  0  0  0  0  0  0  0  0  0
   -0.2996   -0.5030    0.0000 C   0  0  0  0  0  0  0  0  0  0  0  0
    0.0804    0.9481    0.0000 C   0  0  0  0  0  0  0  0  0  0  0  0
    1.5270    1.3446    0.0000 C   0  0  0  0  0  0  0  0  0  0  0  0
    1.9070    2.7956    0.0000 Cl  0  0  0  0  0  0  0  0  0  0  0  0
    2.5937    0.2900    0.0000 C   0  0  0  0  0  0  0  0  0  0  0  0
    4.0404    0.6865    0.0000 O   0  0  0  0  0  0  0  0  0  0  0  0
    5.1071   -0.3681    0.0000 C   0  0  0  0  0  0  0  0  0  0  0  0
    2.2138   -1.1611    0.0000 C   0  0  0  0  0  0  0  0  0  0  0  0
    3.2805   -2.2157    0.0000 Cl  0  0  0  0  0  0  0  0  0  0  0  0
    0.7671   -1.5576    0.0000 C   0  0  0  0  0  0  0  0  0  0  0  0
   -4.2596   -0.2414    0.0000 C   0  0  0  0  0  0  0  0  0  0  0  0
   -4.6395   -1.6925    0.0000 O   0  0  0  0  0  0  0  0  0  0  0  0
   -5.3263    0.8131    0.0000 O   0  0  0  0  0  0  0  0  0  0  0  0
  2  1  1  1
  2  3  1  0
  3  4  1  0
  4  5  2  0
  5  6  1  0
  6  7  1  0
  6  8  2  0
  8  9  1  0
  9 10  1  0
  8 11  1  0
 11 12  1  0
 11 13  2  0
  2 14  1  0
 14 15  2  0
 14 16  1  0
 13  4  1  0
M  END
>  <rName>  (2105) 
Phe_35diCl_4OMe

>  <PQ_SYMBOL>  (2105) 
Phe_35diCl_4OMe

>  <FULL_NAME>  (2105) 
(S)-2-amino-3-(3,5-dichloro-4-methoxyphenyl)propanoic acid

>  <IUPAC_CONDENSED>  (2105) 
Phe(3,5-diCl,4-OMe)

>  <IUPAC>  (2105) 
(2S)-2-amino-3-(3,5-dichloro-4-methoxyphenyl)propanoic acid

>  <TYPE>  (2105) 
Backbone

>  <CLASS>  (2105) 
alpha

>  <ANALOG>  (2105) 
Tyr

>  <MOL_WT>  (2105) 
264.10799999999995

>  <LOGP>  (2105) 
1.9564000000000001

>  <TPSA>  (2105) 
72.55

>  <POPULARITY>  (2105) 
4.3

>  <PROTECTED>  (2105) 
TRUE

>  <SMILES>  (2105) 
N[C@@H](Cc1(cc(Cl)c(OC)c(Cl)c1))C(=O)O

>  <INCHIKEY>  (2105) 
ZSUQOXQAJJUKLS-QMMMGPOBSA-N

$$$$
Phe_2F_6CN
     RDKit          2D

 15 15  0  0  0  0  0  0  0  0999 V2000
   -1.7997    1.7178    0.0000 N   0  0  0  0  0  0  0  0  0  0  0  0
   -1.8951    0.2209    0.0000 C   0  0  0  0  0  0  0  0  0  0  0  0
   -0.6463   -0.6102    0.0000 C   0  0  0  0  0  0  0  0  0  0  0  0
    0.6978    0.0558    0.0000 C   0  0  0  0  0  0  0  0  0  0  0  0
    0.7931    1.5527    0.0000 C   0  0  0  0  0  0  0  0  0  0  0  0
   -0.4557    2.3838    0.0000 F   0  0  0  0  0  0  0  0  0  0  0  0
    2.1372    2.2187    0.0000 C   0  0  0  0  0  0  0  0  0  0  0  0
    3.3859    1.3876    0.0000 C   0  0  0  0  0  0  0  0  0  0  0  0
    3.2906   -0.1093    0.0000 C   0  0  0  0  0  0  0  0  0  0  0  0
    1.9465   -0.7753    0.0000 C   0  0  0  0  0  0  0  0  0  0  0  0
    1.8512   -2.2722    0.0000 C   0  0  0  0  0  0  0  0  0  0  0  0
    1.7559   -3.7692    0.0000 N   0  0  0  0  0  0  0  0  0  0  0  0
   -3.2391   -0.4451    0.0000 C   0  0  0  0  0  0  0  0  0  0  0  0
   -3.3344   -1.9420    0.0000 O   0  0  0  0  0  0  0  0  0  0  0  0
   -4.4879    0.3860    0.0000 O   0  0  0  0  0  0  0  0  0  0  0  0
  2  1  1  1
  2  3  1  0
  3  4  1  0
  4  5  2  0
  5  6  1  0
  5  7  1  0
  7  8  2  0
  8  9  1  0
  9 10  2  0
 10 11  1  0
 11 12  3  0
  2 13  1  0
 13 14  2  0
 13 15  1  0
 10  4  1  0
M  END
>  <rName>  (2106) 
Phe_2F_6CN

>  <PQ_SYMBOL>  (2106) 
Phe_2F_6CN

>  <FULL_NAME>  (2106) 
(S)-2-amino-3-(2-cyano-6-fluorophenyl)propanoic acid

>  <IUPAC_CONDENSED>  (2106) 
Phe(2-F,6-CN)

>  <IUPAC>  (2106) 
(2S)-2-amino-3-(2-fluoro-6-(nitrilomethyl)phenyl)propanoic acid

>  <TYPE>  (2106) 
Backbone

>  <CLASS>  (2106) 
alpha

>  <ANALOG>  (2106) 
Phe

>  <MOL_WT>  (2106) 
208.19199999999998

>  <LOGP>  (2106) 
0.65178

>  <TPSA>  (2106) 
87.11

>  <POPULARITY>  (2106) 
2.8

>  <PROTECTED>  (2106) 
TRUE

>  <SMILES>  (2106) 
N[C@@H](Cc1(c(F)cccc1C#N))C(=O)O

>  <INCHIKEY>  (2106) 
DNFPBPXJCMUWFH-VIFPVBQESA-N

$$$$
Phe_4piperazin1yl_4Me
     RDKit          2D

 19 20  0  0  0  0  0  0  0  0999 V2000
   -3.6454    1.7385    0.0000 N   0  0  0  0  0  0  0  0  0  0  0  0
   -4.2241    0.3546    0.0000 C   0  0  0  0  0  0  0  0  0  0  0  0
   -3.3150   -0.8385    0.0000 C   0  0  0  0  0  0  0  0  0  0  0  0
   -1.8272   -0.6478    0.0000 C   0  0  0  0  0  0  0  0  0  0  0  0
   -1.2485    0.7361    0.0000 C   0  0  0  0  0  0  0  0  0  0  0  0
    0.2394    0.9268    0.0000 C   0  0  0  0  0  0  0  0  0  0  0  0
    1.1485   -0.2664    0.0000 C   0  0  0  0  0  0  0  0  0  0  0  0
    0.5697   -1.6502    0.0000 C   0  0  0  0  0  0  0  0  0  0  0  0
   -0.9181   -1.8409    0.0000 C   0  0  0  0  0  0  0  0  0  0  0  0
    2.6363   -0.0757    0.0000 N   0  0  0  0  0  0  0  0  0  0  0  0
    3.5454   -1.2688    0.0000 C   0  0  0  0  0  0  0  0  0  0  0  0
    5.0332   -1.0781    0.0000 C   0  0  0  0  0  0  0  0  0  0  0  0
    5.6119    0.3058    0.0000 N   0  0  0  0  0  0  0  0  0  0  0  0
    7.0998    0.4965    0.0000 C   0  0  0  0  0  0  0  0  0  0  0  0
    4.7029    1.4989    0.0000 C   0  0  0  0  0  0  0  0  0  0  0  0
    3.2150    1.3082    0.0000 C   0  0  0  0  0  0  0  0  0  0  0  0
   -5.7119    0.1639    0.0000 C   0  0  0  0  0  0  0  0  0  0  0  0
   -6.2907   -1.2199    0.0000 O   0  0  0  0  0  0  0  0  0  0  0  0
   -6.6210    1.3571    0.0000 O   0  0  0  0  0  0  0  0  0  0  0  0
  2  1  1  1
  2  3  1  0
  3  4  1  0
  4  5  1  0
  5  6  2  0
  6  7  1  0
  7  8  2  0
  8  9  1  0
  7 10  1  0
 10 11  1  0
 11 12  1  0
 12 13  1  0
 13 14  1  0
 13 15  1  0
 15 16  1  0
  2 17  1  0
 17 18  2  0
 17 19  1  0
  9  4  2  0
 16 10  1  0
M  END
>  <rName>  (2107) 
Phe_4piperazin1yl_4Me

>  <PQ_SYMBOL>  (2107) 
Phe_4piperazin1yl_4Me

>  <FULL_NAME>  (2107) 
(S)-2-amino-3-(4-(4-methylpiperazin-1-yl)phenyl)propanoic acid

>  <IUPAC_CONDENSED>  (2107) 
Phe(piperazino(4-Me))

>  <IUPAC>  (2107) 
(2S)-2-amino-3-(4-(4-methylpiperazin-1-yl)phenyl)propanoic acid

>  <TYPE>  (2107) 
Backbone

>  <CLASS>  (2107) 
alpha

>  <ANALOG>  (2107) 
Phe

>  <MOL_WT>  (2107) 
263.3409999999999

>  <LOGP>  (2107) 
0.3928000000000002

>  <TPSA>  (2107) 
69.8

>  <POPULARITY>  (2107) 
5.2

>  <PROTECTED>  (2107) 
TRUE

>  <SMILES>  (2107) 
N[C@@H](Cc1(ccc(cc1)N2(CCN(C)CC2)))C(=O)O

>  <INCHIKEY>  (2107) 
NXYXFDRVWKVFEZ-ZDUSSCGKSA-N

$$$$
Phe_2Ac_4F
     RDKit          2D

 16 16  0  0  0  0  0  0  0  0999 V2000
   -2.0264    2.1084    0.0000 N   0  0  0  0  0  0  0  0  0  0  0  0
   -2.2807    0.6301    0.0000 C   0  0  0  0  0  0  0  0  0  0  0  0
   -1.1276   -0.3292    0.0000 C   0  0  0  0  0  0  0  0  0  0  0  0
    0.2798    0.1897    0.0000 C   0  0  0  0  0  0  0  0  0  0  0  0
    0.5340    1.6680    0.0000 C   0  0  0  0  0  0  0  0  0  0  0  0
    1.9414    2.1869    0.0000 C   0  0  0  0  0  0  0  0  0  0  0  0
    3.0945    1.2276    0.0000 C   0  0  0  0  0  0  0  0  0  0  0  0
    4.5019    1.7465    0.0000 F   0  0  0  0  0  0  0  0  0  0  0  0
    2.8403   -0.2507    0.0000 C   0  0  0  0  0  0  0  0  0  0  0  0
    1.4329   -0.7697    0.0000 C   0  0  0  0  0  0  0  0  0  0  0  0
    1.1786   -2.2479    0.0000 C   0  0  0  0  0  0  0  0  0  0  0  0
   -0.2288   -2.7669    0.0000 O   0  0  0  0  0  0  0  0  0  0  0  0
    2.3317   -3.2073    0.0000 C   0  0  0  0  0  0  0  0  0  0  0  0
   -3.6881    0.1112    0.0000 C   0  0  0  0  0  0  0  0  0  0  0  0
   -3.9423   -1.3671    0.0000 O   0  0  0  0  0  0  0  0  0  0  0  0
   -4.8412    1.0705    0.0000 O   0  0  0  0  0  0  0  0  0  0  0  0
  2  1  1  1
  2  3  1  0
  3  4  1  0
  4  5  1  0
  5  6  2  0
  6  7  1  0
  7  8  1  0
  7  9  2  0
  9 10  1  0
 10 11  1  0
 11 12  2  0
 11 13  1  0
  2 14  1  0
 14 15  2  0
 14 16  1  0
 10  4  2  0
M  END
>  <rName>  (2108) 
Phe_2Ac_4F

>  <PQ_SYMBOL>  (2108) 
Phe_2Ac_4F

>  <FULL_NAME>  (2108) 
(S)-3-(2-acetyl-4-fluorophenyl)-2-aminopropanoic acid

>  <IUPAC_CONDENSED>  (2108) 
Phe(2-Ac,4-F)

>  <IUPAC>  (2108) 
(2S)-3-(2-(acetyl)-4-fluorophenyl)-2-aminopropanoic acid

>  <TYPE>  (2108) 
Backbone

>  <CLASS>  (2108) 
alpha

>  <ANALOG>  (2108) 
Phe

>  <MOL_WT>  (2108) 
225.21899999999997

>  <LOGP>  (2108) 
0.9827000000000001

>  <TPSA>  (2108) 
80.39

>  <POPULARITY>  (2108) 
2.5

>  <PROTECTED>  (2108) 
TRUE

>  <SMILES>  (2108) 
N[C@@H](Cc1(ccc(F)cc1C(=O)C))C(=O)O

>  <INCHIKEY>  (2108) 
YZAZKSCQRCDCSC-JTQLQIEISA-N

$$$$
Phe_2OH_5tBu
     RDKit          2D

 17 17  0  0  0  0  0  0  0  0999 V2000
    1.5288   -1.7884    0.0000 N   0  0  0  0  0  0  0  0  0  0  0  0
    2.4204   -0.5821    0.0000 C   0  0  0  0  0  0  0  0  0  0  0  0
    1.8216    0.7932    0.0000 C   0  0  0  0  0  0  0  0  0  0  0  0
    0.3311    0.9622    0.0000 C   0  0  0  0  0  0  0  0  0  0  0  0
   -0.5605   -0.2441    0.0000 C   0  0  0  0  0  0  0  0  0  0  0  0
   -2.0509   -0.0750    0.0000 C   0  0  0  0  0  0  0  0  0  0  0  0
   -2.6498    1.3002    0.0000 C   0  0  0  0  0  0  0  0  0  0  0  0
   -1.7582    2.5065    0.0000 C   0  0  0  0  0  0  0  0  0  0  0  0
   -0.2677    2.3375    0.0000 C   0  0  0  0  0  0  0  0  0  0  0  0
    0.6239    3.5437    0.0000 O   0  0  0  0  0  0  0  0  0  0  0  0
   -2.9425   -1.2813    0.0000 C   0  0  0  0  0  0  0  0  0  0  0  0
   -4.1488   -0.3897    0.0000 C   0  0  0  0  0  0  0  0  0  0  0  0
   -1.7363   -2.1729    0.0000 C   0  0  0  0  0  0  0  0  0  0  0  0
   -3.8341   -2.4875    0.0000 C   0  0  0  0  0  0  0  0  0  0  0  0
    3.9109   -0.7511    0.0000 C   0  0  0  0  0  0  0  0  0  0  0  0
    4.8025    0.4551    0.0000 O   0  0  0  0  0  0  0  0  0  0  0  0
    4.5097   -2.1264    0.0000 O   0  0  0  0  0  0  0  0  0  0  0  0
  2  1  1  1
  2  3  1  0
  3  4  1  0
  4  5  1  0
  5  6  2  0
  6  7  1  0
  7  8  2  0
  8  9  1  0
  9 10  1  0
  6 11  1  0
 11 12  1  0
 11 13  1  0
 11 14  1  0
  2 15  1  0
 15 16  2  0
 15 17  1  0
  9  4  2  0
M  END
>  <rName>  (2109) 
Phe_2OH_5tBu

>  <PQ_SYMBOL>  (2109) 
Phe_2OH_5tBu

>  <FULL_NAME>  (2109) 
(S)-2-amino-3-(5-(tert-butyl)-2-hydroxyphenyl)propanoic acid

>  <IUPAC_CONDENSED>  (2109) 
Phe(2-OH,5-tBu)

>  <IUPAC>  (2109) 
(2S)-2-amino-3-(5-(tert-butyl)-2-hydroxyphenyl)propanoic acid

>  <TYPE>  (2109) 
Backbone

>  <CLASS>  (2109) 
alpha

>  <ANALOG>  (2109) 
Tyr

>  <MOL_WT>  (2109) 
237.29899999999995

>  <LOGP>  (2109) 
1.6441000000000001

>  <TPSA>  (2109) 
83.55

>  <POPULARITY>  (2109) 
2.8

>  <PROTECTED>  (2109) 
TRUE

>  <SMILES>  (2109) 
N[C@@H](Cc1(cc(ccc1O)C(C)(C)C))C(=O)O

>  <INCHIKEY>  (2109) 
QTPBNPXYWOFVJR-JTQLQIEISA-N

$$$$
Gln_PrNH2
     RDKit          2D

 14 13  0  0  0  0  0  0  0  0999 V2000
   -3.2337    2.0047    0.0000 N   0  0  0  0  0  0  0  0  0  0  0  0
   -3.2442    0.5047    0.0000 C   0  0  0  0  0  0  0  0  0  0  0  0
   -1.9504   -0.2543    0.0000 C   0  0  0  0  0  0  0  0  0  0  0  0
   -0.6461    0.4867    0.0000 C   0  0  0  0  0  0  0  0  0  0  0  0
    0.6476   -0.2724    0.0000 C   0  0  0  0  0  0  0  0  0  0  0  0
    0.6372   -1.7723    0.0000 O   0  0  0  0  0  0  0  0  0  0  0  0
    1.9519    0.4686    0.0000 N   0  0  0  0  0  0  0  0  0  0  0  0
    3.2457   -0.2905    0.0000 C   0  0  0  0  0  0  0  0  0  0  0  0
    4.5499    0.4505    0.0000 C   0  0  0  0  0  0  0  0  0  0  0  0
    5.8437   -0.3085    0.0000 C   0  0  0  0  0  0  0  0  0  0  0  0
    7.1479    0.4324    0.0000 N   0  0  0  0  0  0  0  0  0  0  0  0
   -4.5484   -0.2362    0.0000 C   0  0  0  0  0  0  0  0  0  0  0  0
   -4.5588   -1.7362    0.0000 O   0  0  0  0  0  0  0  0  0  0  0  0
   -5.8422    0.5228    0.0000 O   0  0  0  0  0  0  0  0  0  0  0  0
  2  1  1  1
  2  3  1  0
  3  4  1  0
  4  5  1  0
  5  6  2  0
  5  7  1  0
  7  8  1  0
  8  9  1  0
  9 10  1  0
 10 11  1  0
  2 12  1  0
 12 13  2  0
 12 14  1  0
M  END
>  <rName>  (2110) 
Gln_PrNH2

>  <PQ_SYMBOL>  (2110) 
Gln_PrNH2

>  <FULL_NAME>  (2110) 
N5-(3-aminopropyl)-L-glutamine

>  <IUPAC_CONDENSED>  (2110) 
Gln(PrNH2)

>  <IUPAC>  (2110) 
(2S)-2-amino-4-((3-aminopropyl)carbamoyl)butanoic acid

>  <TYPE>  (2110) 
Backbone

>  <CLASS>  (2110) 
alpha

>  <ANALOG>  (2110) 
Gln

>  <MOL_WT>  (2110) 
203.24199999999996

>  <LOGP>  (2110) 
-1.3564999999999978

>  <TPSA>  (2110) 
118.44000000000001

>  <POPULARITY>  (2110) 
7.1

>  <PROTECTED>  (2110) 
TRUE

>  <SMILES>  (2110) 
N[C@@H](CCC(=O)NCCCN)C(=O)O

>  <INCHIKEY>  (2110) 
MTXBLJWLSGUGBT-LURJTMIESA-N

$$$$
Phe_2OMe_4F
     RDKit          2D

 15 15  0  0  0  0  0  0  0  0999 V2000
   -2.0582    1.9063    0.0000 N   0  0  0  0  0  0  0  0  0  0  0  0
   -2.2997    0.4259    0.0000 C   0  0  0  0  0  0  0  0  0  0  0  0
   -1.1384   -0.5235    0.0000 C   0  0  0  0  0  0  0  0  0  0  0  0
    0.2645    0.0075    0.0000 C   0  0  0  0  0  0  0  0  0  0  0  0
    0.5060    1.4879    0.0000 C   0  0  0  0  0  0  0  0  0  0  0  0
    1.9089    2.0190    0.0000 C   0  0  0  0  0  0  0  0  0  0  0  0
    3.0702    1.0696    0.0000 C   0  0  0  0  0  0  0  0  0  0  0  0
    4.4730    1.6006    0.0000 F   0  0  0  0  0  0  0  0  0  0  0  0
    2.8286   -0.4108    0.0000 C   0  0  0  0  0  0  0  0  0  0  0  0
    1.4258   -0.9419    0.0000 C   0  0  0  0  0  0  0  0  0  0  0  0
    1.1842   -2.4223    0.0000 O   0  0  0  0  0  0  0  0  0  0  0  0
    2.3456   -3.3717    0.0000 C   0  0  0  0  0  0  0  0  0  0  0  0
   -3.7026   -0.1052    0.0000 C   0  0  0  0  0  0  0  0  0  0  0  0
   -3.9441   -1.5856    0.0000 O   0  0  0  0  0  0  0  0  0  0  0  0
   -4.8639    0.8442    0.0000 O   0  0  0  0  0  0  0  0  0  0  0  0
  2  1  1  1
  2  3  1  0
  3  4  1  0
  4  5  1  0
  5  6  2  0
  6  7  1  0
  7  8  1  0
  7  9  2  0
  9 10  1  0
 10 11  1  0
 11 12  1  0
  2 13  1  0
 13 14  2  0
 13 15  1  0
 10  4  2  0
M  END
>  <rName>  (2111) 
Phe_2OMe_4F

>  <PQ_SYMBOL>  (2111) 
Phe_2OMe_4F

>  <FULL_NAME>  (2111) 
(S)-2-amino-3-(4-fluoro-2-methoxyphenyl)propanoic acid

>  <IUPAC_CONDENSED>  (2111) 
Phe(2-OMe,4-F)

>  <IUPAC>  (2111) 
(2S)-2-amino-3-(4-fluoro-2-methoxyphenyl)propanoic acid

>  <TYPE>  (2111) 
Backbone

>  <CLASS>  (2111) 
alpha

>  <ANALOG>  (2111) 
Tyr

>  <MOL_WT>  (2111) 
213.20799999999997

>  <LOGP>  (2111) 
0.7887000000000002

>  <TPSA>  (2111) 
72.55

>  <POPULARITY>  (2111) 
3.1

>  <PROTECTED>  (2111) 
TRUE

>  <SMILES>  (2111) 
N[C@@H](Cc1(ccc(F)cc1OC))C(=O)O

>  <INCHIKEY>  (2111) 
AOIQADHQEFSRNL-QMMMGPOBSA-N

$$$$
Phe_3CN_4NH2
     RDKit          2D

 15 15  0  0  0  0  0  0  0  0999 V2000
   -2.5333    1.6163    0.0000 N   0  0  0  0  0  0  0  0  0  0  0  0
   -2.6860    0.1241    0.0000 C   0  0  0  0  0  0  0  0  0  0  0  0
   -1.4701   -0.7543    0.0000 C   0  0  0  0  0  0  0  0  0  0  0  0
   -0.1014   -0.1404    0.0000 C   0  0  0  0  0  0  0  0  0  0  0  0
    0.0513    1.3518    0.0000 C   0  0  0  0  0  0  0  0  0  0  0  0
    1.4199    1.9657    0.0000 C   0  0  0  0  0  0  0  0  0  0  0  0
    2.6358    1.0873    0.0000 C   0  0  0  0  0  0  0  0  0  0  0  0
    4.0045    1.7012    0.0000 N   0  0  0  0  0  0  0  0  0  0  0  0
    2.4832   -0.4049    0.0000 C   0  0  0  0  0  0  0  0  0  0  0  0
    3.6991   -1.2832    0.0000 C   0  0  0  0  0  0  0  0  0  0  0  0
    4.9151   -2.1615    0.0000 N   0  0  0  0  0  0  0  0  0  0  0  0
    1.1145   -1.0187    0.0000 C   0  0  0  0  0  0  0  0  0  0  0  0
   -4.0546   -0.4898    0.0000 C   0  0  0  0  0  0  0  0  0  0  0  0
   -4.2073   -1.9820    0.0000 O   0  0  0  0  0  0  0  0  0  0  0  0
   -5.2706    0.3885    0.0000 O   0  0  0  0  0  0  0  0  0  0  0  0
  2  1  1  1
  2  3  1  0
  3  4  1  0
  4  5  1  0
  5  6  2  0
  6  7  1  0
  7  8  1  0
  7  9  2  0
  9 10  1  0
 10 11  3  0
  9 12  1  0
  2 13  1  0
 13 14  2  0
 13 15  1  0
 12  4  2  0
M  END
>  <rName>  (2112) 
Phe_3CN_4NH2

>  <PQ_SYMBOL>  (2112) 
Phe_3CN_4NH2

>  <FULL_NAME>  (2112) 
(S)-2-amino-3-(4-amino-3-cyanophenyl)propanoic acid

>  <IUPAC_CONDENSED>  (2112) 
Phe(3-CN,4-NH2)

>  <IUPAC>  (2112) 
(2S)-2-amino-3-(4-amino-3-(nitrilomethyl)phenyl)propanoic acid

>  <TYPE>  (2112) 
Backbone

>  <CLASS>  (2112) 
alpha

>  <ANALOG>  (2112) 
Phe

>  <MOL_WT>  (2112) 
205.21699999999998

>  <LOGP>  (2112) 
0.09487999999999985

>  <TPSA>  (2112) 
113.13000000000001

>  <POPULARITY>  (2112) 
2.5

>  <PROTECTED>  (2112) 
TRUE

>  <SMILES>  (2112) 
N[C@@H](Cc1(ccc(N)c(C#N)c1))C(=O)O

>  <INCHIKEY>  (2112) 
KKCNCDSGUYFGLY-VIFPVBQESA-N

$$$$
Ala_pyrid3yl_6OMe
     RDKit          2D

 14 14  0  0  0  0  0  0  0  0999 V2000
   -2.0397    1.6757    0.0000 N   0  0  0  0  0  0  0  0  0  0  0  0
   -2.4395    0.2299    0.0000 C   0  0  0  0  0  0  0  0  0  0  0  0
   -1.3873   -0.8392    0.0000 C   0  0  0  0  0  0  0  0  0  0  0  0
    0.0646   -0.4625    0.0000 C   0  0  0  0  0  0  0  0  0  0  0  0
    0.4644    0.9832    0.0000 C   0  0  0  0  0  0  0  0  0  0  0  0
    1.9164    1.3598    0.0000 C   0  0  0  0  0  0  0  0  0  0  0  0
    2.9685    0.2907    0.0000 C   0  0  0  0  0  0  0  0  0  0  0  0
    4.4205    0.6674    0.0000 O   0  0  0  0  0  0  0  0  0  0  0  0
    5.4726   -0.4017    0.0000 C   0  0  0  0  0  0  0  0  0  0  0  0
    2.5687   -1.1550    0.0000 N   0  0  0  0  0  0  0  0  0  0  0  0
    1.1168   -1.5316    0.0000 C   0  0  0  0  0  0  0  0  0  0  0  0
   -3.8914   -0.1467    0.0000 C   0  0  0  0  0  0  0  0  0  0  0  0
   -4.2912   -1.5924    0.0000 O   0  0  0  0  0  0  0  0  0  0  0  0
   -4.9436    0.9224    0.0000 O   0  0  0  0  0  0  0  0  0  0  0  0
  2  1  1  1
  2  3  1  0
  3  4  1  0
  4  5  1  0
  5  6  2  0
  6  7  1  0
  7  8  1  0
  8  9  1  0
  7 10  2  0
 10 11  1  0
  2 12  1  0
 12 13  2  0
 12 14  1  0
 11  4  2  0
M  END
>  <rName>  (2113) 
Ala_pyrid3yl_6OMe

>  <PQ_SYMBOL>  (2113) 
Ala_pyrid3yl_6OMe

>  <FULL_NAME>  (2113) 
(S)-2-amino-3-(6-methoxypyridin-3-yl)propanoic acid

>  <IUPAC_CONDENSED>  (2113) 
Ala(pyrid-3-yl(6-OMe))

>  <IUPAC>  (2113) 
(2S)-2-amino-3-(6-methoxypyridin-3-yl)propanoic acid

>  <TYPE>  (2113) 
Backbone

>  <CLASS>  (2113) 
alpha

>  <ANALOG>  (2113) 
Phe

>  <MOL_WT>  (2113) 
196.20599999999996

>  <LOGP>  (2113) 
0.044599999999999695

>  <TPSA>  (2113) 
85.44000000000001

>  <POPULARITY>  (2113) 
4.4

>  <PROTECTED>  (2113) 
TRUE

>  <SMILES>  (2113) 
N[C@@H](Cc1(ccc(OC)nc1))C(=O)O

>  <INCHIKEY>  (2113) 
VJKOXBUJHKCZEC-ZETCQYMHSA-N

$$$$
Phe_3Me_4OMe
     RDKit          2D

 15 15  0  0  0  0  0  0  0  0999 V2000
   -2.1188    1.8386    0.0000 N   0  0  0  0  0  0  0  0  0  0  0  0
   -2.4941    0.3864    0.0000 C   0  0  0  0  0  0  0  0  0  0  0  0
   -1.4241   -0.6648    0.0000 C   0  0  0  0  0  0  0  0  0  0  0  0
    0.0213   -0.2637    0.0000 C   0  0  0  0  0  0  0  0  0  0  0  0
    0.3966    1.1886    0.0000 C   0  0  0  0  0  0  0  0  0  0  0  0
    1.8420    1.5897    0.0000 C   0  0  0  0  0  0  0  0  0  0  0  0
    2.9120    0.5385    0.0000 C   0  0  0  0  0  0  0  0  0  0  0  0
    4.3574    0.9396    0.0000 O   0  0  0  0  0  0  0  0  0  0  0  0
    5.4275   -0.1116    0.0000 C   0  0  0  0  0  0  0  0  0  0  0  0
    2.5367   -0.9138    0.0000 C   0  0  0  0  0  0  0  0  0  0  0  0
    1.0914   -1.3149    0.0000 C   0  0  0  0  0  0  0  0  0  0  0  0
    0.7160   -2.7672    0.0000 C   0  0  0  0  0  0  0  0  0  0  0  0
   -3.9395   -0.0148    0.0000 C   0  0  0  0  0  0  0  0  0  0  0  0
   -4.3148   -1.4670    0.0000 O   0  0  0  0  0  0  0  0  0  0  0  0
   -5.0096    1.0364    0.0000 O   0  0  0  0  0  0  0  0  0  0  0  0
  2  1  1  1
  2  3  1  0
  3  4  1  0
  4  5  1  0
  5  6  2  0
  6  7  1  0
  7  8  1  0
  8  9  1  0
  7 10  2  0
 10 11  1  0
 11 12  1  0
  2 13  1  0
 13 14  2  0
 13 15  1  0
 11  4  2  0
M  END
>  <rName>  (2114) 
Phe_3Me_4OMe

>  <PQ_SYMBOL>  (2114) 
Phe_3Me_4OMe

>  <FULL_NAME>  (2114) 
(S)-2-amino-3-(4-methoxy-2-methylphenyl)propanoic acid

>  <IUPAC_CONDENSED>  (2114) 
Phe(3-Me,4-OMe)

>  <IUPAC>  (2114) 
(2S)-2-amino-3-(4-methoxy-2-methylphenyl)propanoic acid

>  <TYPE>  (2114) 
Backbone

>  <CLASS>  (2114) 
alpha

>  <ANALOG>  (2114) 
Tyr

>  <MOL_WT>  (2114) 
209.24499999999998

>  <LOGP>  (2114) 
0.9580199999999999

>  <TPSA>  (2114) 
72.55

>  <POPULARITY>  (2114) 
9

>  <PROTECTED>  (2114) 
TRUE

>  <SMILES>  (2114) 
N[C@@H](Cc1(ccc(OC)cc1C))C(=O)O

>  <INCHIKEY>  (2114) 
JSBGJZZYJLWLGU-JTQLQIEISA-N

$$$$
Phe_3F_4NH2
     RDKit          2D

 14 14  0  0  0  0  0  0  0  0999 V2000
   -2.0094    1.6916    0.0000 N   0  0  0  0  0  0  0  0  0  0  0  0
   -2.3243    0.2250    0.0000 C   0  0  0  0  0  0  0  0  0  0  0  0
   -1.2116   -0.7809    0.0000 C   0  0  0  0  0  0  0  0  0  0  0  0
    0.2159   -0.3203    0.0000 C   0  0  0  0  0  0  0  0  0  0  0  0
    0.5308    1.1463    0.0000 C   0  0  0  0  0  0  0  0  0  0  0  0
    1.9583    1.6069    0.0000 C   0  0  0  0  0  0  0  0  0  0  0  0
    3.0710    0.6009    0.0000 C   0  0  0  0  0  0  0  0  0  0  0  0
    4.4985    1.0615    0.0000 N   0  0  0  0  0  0  0  0  0  0  0  0
    2.7561   -0.8657    0.0000 C   0  0  0  0  0  0  0  0  0  0  0  0
    3.8688   -1.8716    0.0000 F   0  0  0  0  0  0  0  0  0  0  0  0
    1.3286   -1.3263    0.0000 C   0  0  0  0  0  0  0  0  0  0  0  0
   -3.7518   -0.2356    0.0000 C   0  0  0  0  0  0  0  0  0  0  0  0
   -4.0666   -1.7022    0.0000 O   0  0  0  0  0  0  0  0  0  0  0  0
   -4.8644    0.7704    0.0000 O   0  0  0  0  0  0  0  0  0  0  0  0
  2  1  1  1
  2  3  1  0
  3  4  1  0
  4  5  1  0
  5  6  2  0
  6  7  1  0
  7  8  1  0
  7  9  2  0
  9 10  1  0
  9 11  1  0
  2 12  1  0
 12 13  2  0
 12 14  1  0
 11  4  2  0
M  END
>  <rName>  (2115) 
Phe_3F_4NH2

>  <PQ_SYMBOL>  (2115) 
Phe_3F_4NH2

>  <FULL_NAME>  (2115) 
(S)-2-amino-3-(4-amino-3-fluorophenyl)propanoic acid

>  <IUPAC_CONDENSED>  (2115) 
Phe(3-F,4-NH2)

>  <IUPAC>  (2115) 
(2S)-2-amino-3-(4-amino-3-fluorophenyl)propanoic acid

>  <TYPE>  (2115) 
Backbone

>  <CLASS>  (2115) 
alpha

>  <ANALOG>  (2115) 
Phe

>  <MOL_WT>  (2115) 
198.19699999999997

>  <LOGP>  (2115) 
0.3622999999999999

>  <TPSA>  (2115) 
89.34

>  <POPULARITY>  (2115) 
4.2

>  <PROTECTED>  (2115) 
TRUE

>  <SMILES>  (2115) 
N[C@@H](Cc1(ccc(N)c(F)c1))C(=O)O

>  <INCHIKEY>  (2115) 
UUDLEJZCHHMENY-QMMMGPOBSA-N

$$$$
Phe_2F_5CO2H
     RDKit          2D

 16 16  0  0  0  0  0  0  0  0999 V2000
    1.4458   -1.7915    0.0000 N   0  0  0  0  0  0  0  0  0  0  0  0
    2.2696   -0.5380    0.0000 C   0  0  0  0  0  0  0  0  0  0  0  0
    1.5959    0.8022    0.0000 C   0  0  0  0  0  0  0  0  0  0  0  0
    0.0984    0.8889    0.0000 C   0  0  0  0  0  0  0  0  0  0  0  0
   -0.7254   -0.3646    0.0000 C   0  0  0  0  0  0  0  0  0  0  0  0
   -2.2229   -0.2780    0.0000 C   0  0  0  0  0  0  0  0  0  0  0  0
   -2.8966    1.0622    0.0000 C   0  0  0  0  0  0  0  0  0  0  0  0
   -2.0728    2.3158    0.0000 C   0  0  0  0  0  0  0  0  0  0  0  0
   -0.5753    2.2291    0.0000 C   0  0  0  0  0  0  0  0  0  0  0  0
    0.2485    3.4826    0.0000 F   0  0  0  0  0  0  0  0  0  0  0  0
   -3.0467   -1.5315    0.0000 C   0  0  0  0  0  0  0  0  0  0  0  0
   -2.3730   -2.8717    0.0000 O   0  0  0  0  0  0  0  0  0  0  0  0
   -4.5442   -1.4448    0.0000 O   0  0  0  0  0  0  0  0  0  0  0  0
    3.7671   -0.6247    0.0000 C   0  0  0  0  0  0  0  0  0  0  0  0
    4.5909    0.6289    0.0000 O   0  0  0  0  0  0  0  0  0  0  0  0
    4.4408   -1.9649    0.0000 O   0  0  0  0  0  0  0  0  0  0  0  0
  2  1  1  1
  2  3  1  0
  3  4  1  0
  4  5  1  0
  5  6  2  0
  6  7  1  0
  7  8  2  0
  8  9  1  0
  9 10  1  0
  6 11  1  0
 11 12  2  0
 11 13  1  0
  2 14  1  0
 14 15  2  0
 14 16  1  0
  9  4  2  0
M  END
>  <rName>  (2116) 
Phe_2F_5CO2H

>  <PQ_SYMBOL>  (2116) 
Phe_2F_5CO2H

>  <FULL_NAME>  (2116) 
(S)-3-(2-amino-2-carboxyethyl)-4-fluorobenzoic acid

>  <IUPAC_CONDENSED>  (2116) 
Phe(2-F,5-CO2H)

>  <IUPAC>  (2116) 
3-((2S)-2-amino-3-hydroxy-3-oxopropyl)-4-fluorobenzene-1-carboxylic acid

>  <TYPE>  (2116) 
Backbone

>  <CLASS>  (2116) 
alpha

>  <ANALOG>  (2116) 
Phe

>  <MOL_WT>  (2116) 
227.19099999999995

>  <LOGP>  (2116) 
0.47829999999999984

>  <TPSA>  (2116) 
100.62000000000002

>  <POPULARITY>  (2116) 
2.5

>  <PROTECTED>  (2116) 
TRUE

>  <SMILES>  (2116) 
N[C@@H](Cc1(cc(ccc1F)C(=O)O))C(=O)O

>  <INCHIKEY>  (2116) 
HWKPJLCCMDGWIR-QMMMGPOBSA-N

$$$$
Phe_3tBu
     RDKit          2D

 16 16  0  0  0  0  0  0  0  0999 V2000
   -2.9171    1.6042    0.0000 N   0  0  0  0  0  0  0  0  0  0  0  0
   -2.9225    0.1042    0.0000 C   0  0  0  0  0  0  0  0  0  0  0  0
   -1.6261   -0.6504    0.0000 C   0  0  0  0  0  0  0  0  0  0  0  0
   -0.3244    0.0949    0.0000 C   0  0  0  0  0  0  0  0  0  0  0  0
   -0.3190    1.5949    0.0000 C   0  0  0  0  0  0  0  0  0  0  0  0
    0.9827    2.3402    0.0000 C   0  0  0  0  0  0  0  0  0  0  0  0
    2.2790    1.5856    0.0000 C   0  0  0  0  0  0  0  0  0  0  0  0
    2.2736    0.0856    0.0000 C   0  0  0  0  0  0  0  0  0  0  0  0
    0.9719   -0.6597    0.0000 C   0  0  0  0  0  0  0  0  0  0  0  0
    3.5700   -0.6691    0.0000 C   0  0  0  0  0  0  0  0  0  0  0  0
    2.8153   -1.9654    0.0000 C   0  0  0  0  0  0  0  0  0  0  0  0
    4.3246    0.6273    0.0000 C   0  0  0  0  0  0  0  0  0  0  0  0
    4.8663   -1.4237    0.0000 C   0  0  0  0  0  0  0  0  0  0  0  0
   -4.2242   -0.6411    0.0000 C   0  0  0  0  0  0  0  0  0  0  0  0
   -4.2296   -2.1411    0.0000 O   0  0  0  0  0  0  0  0  0  0  0  0
   -5.5205    0.1136    0.0000 O   0  0  0  0  0  0  0  0  0  0  0  0
  2  1  1  1
  2  3  1  0
  3  4  1  0
  4  5  1  0
  5  6  2  0
  6  7  1  0
  7  8  2  0
  8  9  1  0
  8 10  1  0
 10 11  1  0
 10 12  1  0
 10 13  1  0
  2 14  1  0
 14 15  2  0
 14 16  1  0
  9  4  2  0
M  END
>  <rName>  (2117) 
Phe_3tBu

>  <PQ_SYMBOL>  (2117) 
Phe_3tBu

>  <FULL_NAME>  (2117) 
(S)-2-amino-3-(3-(tert-butyl)phenyl)propanoic acid

>  <IUPAC_CONDENSED>  (2117) 
Phe(3-tBu)

>  <IUPAC>  (2117) 
(2S)-2-amino-3-(3-(tert-butyl)phenyl)propanoic acid

>  <TYPE>  (2117) 
Backbone

>  <CLASS>  (2117) 
alpha

>  <ANALOG>  (2117) 
Phe

>  <MOL_WT>  (2117) 
221.29999999999995

>  <LOGP>  (2117) 
1.9385000000000001

>  <TPSA>  (2117) 
63.32000000000001

>  <POPULARITY>  (2117) 
5.6

>  <PROTECTED>  (2117) 
TRUE

>  <SMILES>  (2117) 
N[C@@H](Cc1(cccc(c1)C(C)(C)C))C(=O)O

>  <INCHIKEY>  (2117) 
XYGRGGCXUZSDFB-NSHDSACASA-N

$$$$
Phe_2OMe_5CO2H
     RDKit          2D

 17 17  0  0  0  0  0  0  0  0999 V2000
    1.5479   -2.0183    0.0000 N   0  0  0  0  0  0  0  0  0  0  0  0
    2.3239   -0.7347    0.0000 C   0  0  0  0  0  0  0  0  0  0  0  0
    1.6002    0.5792    0.0000 C   0  0  0  0  0  0  0  0  0  0  0  0
    0.1005    0.6094    0.0000 C   0  0  0  0  0  0  0  0  0  0  0  0
   -0.6755   -0.6743    0.0000 C   0  0  0  0  0  0  0  0  0  0  0  0
   -2.1752   -0.6441    0.0000 C   0  0  0  0  0  0  0  0  0  0  0  0
   -2.8989    0.6698    0.0000 C   0  0  0  0  0  0  0  0  0  0  0  0
   -2.1229    1.9535    0.0000 C   0  0  0  0  0  0  0  0  0  0  0  0
   -0.6232    1.9233    0.0000 C   0  0  0  0  0  0  0  0  0  0  0  0
    0.1528    3.2070    0.0000 O   0  0  0  0  0  0  0  0  0  0  0  0
   -0.5709    4.5208    0.0000 C   0  0  0  0  0  0  0  0  0  0  0  0
   -2.9512   -1.9278    0.0000 C   0  0  0  0  0  0  0  0  0  0  0  0
   -2.2275   -3.2416    0.0000 O   0  0  0  0  0  0  0  0  0  0  0  0
   -4.4509   -1.8976    0.0000 O   0  0  0  0  0  0  0  0  0  0  0  0
    3.8236   -0.7648    0.0000 C   0  0  0  0  0  0  0  0  0  0  0  0
    4.5996    0.5188    0.0000 O   0  0  0  0  0  0  0  0  0  0  0  0
    4.5473   -2.0787    0.0000 O   0  0  0  0  0  0  0  0  0  0  0  0
  2  1  1  1
  2  3  1  0
  3  4  1  0
  4  5  1  0
  5  6  2  0
  6  7  1  0
  7  8  2  0
  8  9  1  0
  9 10  1  0
 10 11  1  0
  6 12  1  0
 12 13  2  0
 12 14  1  0
  2 15  1  0
 15 16  2  0
 15 17  1  0
  9  4  2  0
M  END
>  <rName>  (2118) 
Phe_2OMe_5CO2H

>  <PQ_SYMBOL>  (2118) 
Phe_2OMe_5CO2H

>  <FULL_NAME>  (2118) 
(S)-3-(2-amino-2-carboxyethyl)-4-methoxybenzoic acid

>  <IUPAC_CONDENSED>  (2118) 
Phe(2-OMe,5-CO2H)

>  <IUPAC>  (2118) 
3-((2S)-2-amino-3-hydroxy-3-oxopropyl)-4-methoxybenzene-1-carboxylic acid

>  <TYPE>  (2118) 
Backbone

>  <CLASS>  (2118) 
alpha

>  <ANALOG>  (2118) 
Tyr

>  <MOL_WT>  (2118) 
239.22699999999995

>  <LOGP>  (2118) 
0.3478

>  <TPSA>  (2118) 
109.85000000000001

>  <POPULARITY>  (2118) 
2.6

>  <PROTECTED>  (2118) 
TRUE

>  <SMILES>  (2118) 
N[C@@H](Cc1(cc(ccc1OC)C(=O)O))C(=O)O

>  <INCHIKEY>  (2118) 
BVVLWXUBFSPWJW-QMMMGPOBSA-N

$$$$
4Pal_2F_3Me
     RDKit          2D

 14 14  0  0  0  0  0  0  0  0999 V2000
   -1.9599    1.7683    0.0000 N   0  0  0  0  0  0  0  0  0  0  0  0
   -2.1168    0.2766    0.0000 C   0  0  0  0  0  0  0  0  0  0  0  0
   -0.9034   -0.6052    0.0000 C   0  0  0  0  0  0  0  0  0  0  0  0
    0.4670    0.0047    0.0000 C   0  0  0  0  0  0  0  0  0  0  0  0
    0.6239    1.4965    0.0000 C   0  0  0  0  0  0  0  0  0  0  0  0
    1.9943    2.1065    0.0000 C   0  0  0  0  0  0  0  0  0  0  0  0
    3.2078    1.2247    0.0000 N   0  0  0  0  0  0  0  0  0  0  0  0
    3.0508   -0.2671    0.0000 C   0  0  0  0  0  0  0  0  0  0  0  0
    4.2643   -1.1489    0.0000 F   0  0  0  0  0  0  0  0  0  0  0  0
    1.6804   -0.8771    0.0000 C   0  0  0  0  0  0  0  0  0  0  0  0
    1.5235   -2.3688    0.0000 C   0  0  0  0  0  0  0  0  0  0  0  0
   -3.4872   -0.3334    0.0000 C   0  0  0  0  0  0  0  0  0  0  0  0
   -3.6441   -1.8252    0.0000 O   0  0  0  0  0  0  0  0  0  0  0  0
   -4.7006    0.5484    0.0000 O   0  0  0  0  0  0  0  0  0  0  0  0
  2  1  1  1
  2  3  1  0
  3  4  1  0
  4  5  1  0
  5  6  2  0
  6  7  1  0
  7  8  2  0
  8  9  1  0
  8 10  1  0
 10 11  1  0
  2 12  1  0
 12 13  2  0
 12 14  1  0
 10  4  2  0
M  END
>  <rName>  (2119) 
4Pal_2F_3Me

>  <PQ_SYMBOL>  (2119) 
4Pal_2F_3Me

>  <FULL_NAME>  (2119) 
(S)-2-amino-3-(2-fluoro-3-methylpyridin-4-yl)propanoic acid

>  <IUPAC_CONDENSED>  (2119) 
4Pal(2-F,3-Me)

>  <IUPAC>  (2119) 
(2S)-2-amino-3-(2-fluoro-3-methylpyridin-4-yl)propanoic acid

>  <TYPE>  (2119) 
Backbone

>  <CLASS>  (2119) 
alpha

>  <ANALOG>  (2119) 
Phe

>  <MOL_WT>  (2119) 
198.19699999999997

>  <LOGP>  (2119) 
0.4835199999999999

>  <TPSA>  (2119) 
76.21

>  <POPULARITY>  (2119) 
2.2

>  <PROTECTED>  (2119) 
TRUE

>  <SMILES>  (2119) 
N[C@@H](Cc1(ccnc(F)c1C))C(=O)O

>  <INCHIKEY>  (2119) 
UHGFSQBALWAZQV-ZETCQYMHSA-N

$$$$
D-Phe_4CO2H
     RDKit          2D

 15 15  0  0  0  0  0  0  0  0999 V2000
   -2.2547    1.6872    0.0000 N   0  0  0  0  0  0  0  0  0  0  0  0
   -2.7489    0.2709    0.0000 C   0  0  0  0  0  0  0  0  0  0  0  0
   -1.7696   -0.8652    0.0000 C   0  0  0  0  0  0  0  0  0  0  0  0
   -0.2959   -0.5852    0.0000 C   0  0  0  0  0  0  0  0  0  0  0  0
    0.1983    0.8311    0.0000 C   0  0  0  0  0  0  0  0  0  0  0  0
    1.6719    1.1111    0.0000 C   0  0  0  0  0  0  0  0  0  0  0  0
    2.6513   -0.0250    0.0000 C   0  0  0  0  0  0  0  0  0  0  0  0
    2.1570   -1.4413    0.0000 C   0  0  0  0  0  0  0  0  0  0  0  0
    0.6834   -1.7213    0.0000 C   0  0  0  0  0  0  0  0  0  0  0  0
    4.1249    0.2550    0.0000 C   0  0  0  0  0  0  0  0  0  0  0  0
    4.6192    1.6713    0.0000 O   0  0  0  0  0  0  0  0  0  0  0  0
    5.1043   -0.8811    0.0000 O   0  0  0  0  0  0  0  0  0  0  0  0
   -4.2225   -0.0091    0.0000 C   0  0  0  0  0  0  0  0  0  0  0  0
   -4.7168   -1.4254    0.0000 O   0  0  0  0  0  0  0  0  0  0  0  0
   -5.2019    1.1270    0.0000 O   0  0  0  0  0  0  0  0  0  0  0  0
  2  1  1  6
  2  3  1  0
  3  4  1  0
  4  5  1  0
  5  6  2  0
  6  7  1  0
  7  8  2  0
  8  9  1  0
  7 10  1  0
 10 11  2  0
 10 12  1  0
  2 13  1  0
 13 14  2  0
 13 15  1  0
  9  4  2  0
M  END
>  <rName>  (2120) 
D-Phe_4CO2H

>  <PQ_SYMBOL>  (2120) 
D-Phe_4CO2H

>  <FULL_NAME>  (2120) 
(R)-4-(2-amino-2-carboxyethyl)benzoic acid

>  <IUPAC_CONDENSED>  (2120) 
D-Phe(4-CO2H)

>  <IUPAC>  (2120) 
4-((2R)-2-amino-3-hydroxy-3-oxopropyl)benzoic acid

>  <TYPE>  (2120) 
Backbone

>  <CLASS>  (2120) 
alpha

>  <ANALOG>  (2120) 
Phe

>  <MOL_WT>  (2120) 
209.20099999999996

>  <LOGP>  (2120) 
0.33920000000000006

>  <TPSA>  (2120) 
100.62000000000002

>  <POPULARITY>  (2120) 
7.1

>  <PROTECTED>  (2120) 
TRUE

>  <SMILES>  (2120) 
N[C@H](Cc1(ccc(cc1)C(=O)O))C(=O)O

>  <INCHIKEY>  (2120) 
YXDGRBPZVQPESQ-MRVPVSSYSA-N

$$$$
Trp_4Aza_Me_Aza
     RDKit          2D

 16 17  0  0  0  0  0  0  0  0999 V2000
   -2.6387   -1.6746    0.0000 N   0  0  0  0  0  0  0  0  0  0  0  0
   -2.6908   -0.1755    0.0000 C   0  0  0  0  0  0  0  0  0  0  0  0
   -1.4185    0.6191    0.0000 C   0  0  0  0  0  0  0  0  0  0  0  0
   -0.0943   -0.0853    0.0000 C   0  0  0  0  0  0  0  0  0  0  0  0
    0.1142   -1.5708    0.0000 N   0  0  0  0  0  0  0  0  0  0  0  0
    1.5913   -1.8316    0.0000 N   0  0  0  0  0  0  0  0  0  0  0  0
    2.2486   -3.1799    0.0000 C   0  0  0  0  0  0  0  0  0  0  0  0
    2.2958   -0.5073    0.0000 C   0  0  0  0  0  0  0  0  0  0  0  0
    3.7514   -0.1448    0.0000 C   0  0  0  0  0  0  0  0  0  0  0  0
    4.1651    1.2970    0.0000 C   0  0  0  0  0  0  0  0  0  0  0  0
    3.1234    2.3763    0.0000 C   0  0  0  0  0  0  0  0  0  0  0  0
    1.6678    2.0137    0.0000 N   0  0  0  0  0  0  0  0  0  0  0  0
    1.2541    0.5719    0.0000 C   0  0  0  0  0  0  0  0  0  0  0  0
   -4.0150    0.5290    0.0000 C   0  0  0  0  0  0  0  0  0  0  0  0
   -4.0671    2.0281    0.0000 O   0  0  0  0  0  0  0  0  0  0  0  0
   -5.2873   -0.2656    0.0000 O   0  0  0  0  0  0  0  0  0  0  0  0
  2  1  1  6
  2  3  1  0
  3  4  1  0
  4  5  2  0
  5  6  1  0
  6  7  1  0
  6  8  1  0
  8  9  2  0
  9 10  1  0
 10 11  2  0
 11 12  1  0
 12 13  2  0
  2 14  1  0
 14 15  2  0
 14 16  1  0
 13  4  1  0
 13  8  1  0
M  END
>  <rName>  (2121) 
Trp_4Aza_Me_Aza

>  <PQ_SYMBOL>  (2121) 
Trp_4Aza_Me_Aza

>  <FULL_NAME>  (2121) 
(S)-2-amino-3-(1-methyl-1H-pyrazolo[4,3-b]pyridin-3-yl)propanoic acid

>  <IUPAC_CONDENSED>  (2121) 
Trp(4-Aza,Me,Aza)

>  <IUPAC>  (2121) 
(2S)-2-amino-3-(7-methyl-2,7,8-triazabicyclo[4.3.0]nona-1,3,5,8-tetraen-9-yl)propanoic acid

>  <TYPE>  (2121) 
Backbone

>  <CLASS>  (2121) 
alpha

>  <ANALOG>  (2121) 
Phe

>  <MOL_WT>  (2121) 
220.232

>  <LOGP>  (2121) 
-0.07730000000000087

>  <TPSA>  (2121) 
94.03

>  <POPULARITY>  (2121) 
2.2

>  <PROTECTED>  (2121) 
TRUE

>  <SMILES>  (2121) 
N[C@@H](Cc1(nn(C)c2(cccnc12)))C(=O)O

>  <INCHIKEY>  (2121) 
NYOSLHSYEKHVOL-LURJTMIESA-N

$$$$
Phe_2CN_3OMe
     RDKit          2D

 16 16  0  0  0  0  0  0  0  0999 V2000
   -2.5254    1.8829    0.0000 N   0  0  0  0  0  0  0  0  0  0  0  0
   -2.5849    0.3841    0.0000 C   0  0  0  0  0  0  0  0  0  0  0  0
   -1.3166   -0.4169    0.0000 C   0  0  0  0  0  0  0  0  0  0  0  0
    0.0112    0.2810    0.0000 C   0  0  0  0  0  0  0  0  0  0  0  0
    0.0707    1.7798    0.0000 C   0  0  0  0  0  0  0  0  0  0  0  0
    1.3984    2.4777    0.0000 C   0  0  0  0  0  0  0  0  0  0  0  0
    2.6667    1.6768    0.0000 C   0  0  0  0  0  0  0  0  0  0  0  0
    2.6072    0.1780    0.0000 C   0  0  0  0  0  0  0  0  0  0  0  0
    3.8755   -0.6230    0.0000 O   0  0  0  0  0  0  0  0  0  0  0  0
    5.2032    0.0749    0.0000 C   0  0  0  0  0  0  0  0  0  0  0  0
    1.2794   -0.5199    0.0000 C   0  0  0  0  0  0  0  0  0  0  0  0
    1.2199   -2.0187    0.0000 C   0  0  0  0  0  0  0  0  0  0  0  0
    1.1604   -3.5175    0.0000 N   0  0  0  0  0  0  0  0  0  0  0  0
   -3.9126   -0.3138    0.0000 C   0  0  0  0  0  0  0  0  0  0  0  0
   -3.9721   -1.8126    0.0000 O   0  0  0  0  0  0  0  0  0  0  0  0
   -5.1809    0.4871    0.0000 O   0  0  0  0  0  0  0  0  0  0  0  0
  2  1  1  1
  2  3  1  0
  3  4  1  0
  4  5  1  0
  5  6  2  0
  6  7  1  0
  7  8  2  0
  8  9  1  0
  9 10  1  0
  8 11  1  0
 11 12  1  0
 12 13  3  0
  2 14  1  0
 14 15  2  0
 14 16  1  0
 11  4  2  0
M  END
>  <rName>  (2122) 
Phe_2CN_3OMe

>  <PQ_SYMBOL>  (2122) 
Phe_2CN_3OMe

>  <FULL_NAME>  (2122) 
(S)-2-amino-3-(2-cyano-3-methoxyphenyl)propanoic acid

>  <IUPAC_CONDENSED>  (2122) 
Phe(2-CN,3-OMe)

>  <IUPAC>  (2122) 
(2S)-2-amino-3-(3-methoxy-2-(nitrilomethyl)phenyl)propanoic acid

>  <TYPE>  (2122) 
Backbone

>  <CLASS>  (2122) 
alpha

>  <ANALOG>  (2122) 
Tyr

>  <MOL_WT>  (2122) 
220.22799999999995

>  <LOGP>  (2122) 
0.5212800000000002

>  <TPSA>  (2122) 
96.34

>  <POPULARITY>  (2122) 
2.5

>  <PROTECTED>  (2122) 
TRUE

>  <SMILES>  (2122) 
N[C@@H](Cc1(cccc(OC)c1C#N))C(=O)O

>  <INCHIKEY>  (2122) 
FMGUFHLHDLZGOZ-VIFPVBQESA-N

$$$$
Phe_2CN_5F
     RDKit          2D

 15 15  0  0  0  0  0  0  0  0999 V2000
   -1.5996    2.0029    0.0000 N   0  0  0  0  0  0  0  0  0  0  0  0
   -2.0022    0.5579    0.0000 C   0  0  0  0  0  0  0  0  0  0  0  0
   -0.9521   -0.5133    0.0000 C   0  0  0  0  0  0  0  0  0  0  0  0
    0.5005   -0.1395    0.0000 C   0  0  0  0  0  0  0  0  0  0  0  0
    0.9032    1.3055    0.0000 C   0  0  0  0  0  0  0  0  0  0  0  0
    2.3559    1.6793    0.0000 C   0  0  0  0  0  0  0  0  0  0  0  0
    2.7585    3.1242    0.0000 F   0  0  0  0  0  0  0  0  0  0  0  0
    3.4059    0.6081    0.0000 C   0  0  0  0  0  0  0  0  0  0  0  0
    3.0033   -0.8369    0.0000 C   0  0  0  0  0  0  0  0  0  0  0  0
    1.5506   -1.2106    0.0000 C   0  0  0  0  0  0  0  0  0  0  0  0
    1.1480   -2.6556    0.0000 C   0  0  0  0  0  0  0  0  0  0  0  0
    0.7453   -4.1005    0.0000 N   0  0  0  0  0  0  0  0  0  0  0  0
   -3.4549    0.1841    0.0000 C   0  0  0  0  0  0  0  0  0  0  0  0
   -3.8575   -1.2608    0.0000 O   0  0  0  0  0  0  0  0  0  0  0  0
   -4.5049    1.2553    0.0000 O   0  0  0  0  0  0  0  0  0  0  0  0
  2  1  1  1
  2  3  1  0
  3  4  1  0
  4  5  1  0
  5  6  2  0
  6  7  1  0
  6  8  1  0
  8  9  2  0
  9 10  1  0
 10 11  1  0
 11 12  3  0
  2 13  1  0
 13 14  2  0
 13 15  1  0
 10  4  2  0
M  END
>  <rName>  (2123) 
Phe_2CN_5F

>  <PQ_SYMBOL>  (2123) 
Phe_2CN_5F

>  <FULL_NAME>  (2123) 
(S)-2-amino-3-(2-cyano-5-fluorophenyl)propanoic acid

>  <IUPAC_CONDENSED>  (2123) 
Phe(2-CN,5-F)

>  <IUPAC>  (2123) 
(2S)-2-amino-3-(5-fluoro-2-(nitrilomethyl)phenyl)propanoic acid

>  <TYPE>  (2123) 
Backbone

>  <CLASS>  (2123) 
alpha

>  <ANALOG>  (2123) 
Phe

>  <MOL_WT>  (2123) 
208.19199999999998

>  <LOGP>  (2123) 
0.65178

>  <TPSA>  (2123) 
87.11

>  <POPULARITY>  (2123) 
2.7

>  <PROTECTED>  (2123) 
TRUE

>  <SMILES>  (2123) 
N[C@@H](Cc1(cc(F)ccc1C#N))C(=O)O

>  <INCHIKEY>  (2123) 
HTSDVAWQZZCWLH-VIFPVBQESA-N

$$$$
Phe_23diCO2H
     RDKit          2D

 18 18  0  0  0  0  0  0  0  0999 V2000
   -2.9769    1.8631    0.0000 N   0  0  0  0  0  0  0  0  0  0  0  0
   -2.9069    0.3648    0.0000 C   0  0  0  0  0  0  0  0  0  0  0  0
   -1.5743   -0.3238    0.0000 C   0  0  0  0  0  0  0  0  0  0  0  0
   -0.3117    0.4860    0.0000 C   0  0  0  0  0  0  0  0  0  0  0  0
   -0.3817    1.9844    0.0000 C   0  0  0  0  0  0  0  0  0  0  0  0
    0.8809    2.7941    0.0000 C   0  0  0  0  0  0  0  0  0  0  0  0
    2.2136    2.1056    0.0000 C   0  0  0  0  0  0  0  0  0  0  0  0
    2.2836    0.6072    0.0000 C   0  0  0  0  0  0  0  0  0  0  0  0
    3.6162   -0.0814    0.0000 C   0  0  0  0  0  0  0  0  0  0  0  0
    4.8788    0.7284    0.0000 O   0  0  0  0  0  0  0  0  0  0  0  0
    3.6862   -1.5797    0.0000 O   0  0  0  0  0  0  0  0  0  0  0  0
    1.0209   -0.2026    0.0000 C   0  0  0  0  0  0  0  0  0  0  0  0
    1.0909   -1.7010    0.0000 C   0  0  0  0  0  0  0  0  0  0  0  0
    2.4235   -2.3895    0.0000 O   0  0  0  0  0  0  0  0  0  0  0  0
   -0.1717   -2.5107    0.0000 O   0  0  0  0  0  0  0  0  0  0  0  0
   -4.1696   -0.4450    0.0000 C   0  0  0  0  0  0  0  0  0  0  0  0
   -4.0996   -1.9434    0.0000 O   0  0  0  0  0  0  0  0  0  0  0  0
   -5.5022    0.2435    0.0000 O   0  0  0  0  0  0  0  0  0  0  0  0
  2  1  1  1
  2  3  1  0
  3  4  1  0
  4  5  1  0
  5  6  2  0
  6  7  1  0
  7  8  2  0
  8  9  1  0
  9 10  2  0
  9 11  1  0
  8 12  1  0
 12 13  1  0
 13 14  2  0
 13 15  1  0
  2 16  1  0
 16 17  2  0
 16 18  1  0
 12  4  2  0
M  END
>  <rName>  (2124) 
Phe_23diCO2H

>  <PQ_SYMBOL>  (2124) 
Phe_23diCO2H

>  <FULL_NAME>  (2124) 
(S)-3-(2-amino-2-carboxyethyl)phthalic acid

>  <IUPAC_CONDENSED>  (2124) 
Phe(2,3-diCO2H)

>  <IUPAC>  (2124) 
3-((2S)-2-amino-3-hydroxy-3-oxopropyl)benzene-1,2-dicarboxylic acid

>  <TYPE>  (2124) 
Backbone

>  <CLASS>  (2124) 
alpha

>  <ANALOG>  (2124) 
Phe

>  <MOL_WT>  (2124) 
253.20999999999995

>  <LOGP>  (2124) 
0.03739999999999977

>  <TPSA>  (2124) 
137.92000000000002

>  <POPULARITY>  (2124) 
2.4

>  <PROTECTED>  (2124) 
TRUE

>  <SMILES>  (2124) 
N[C@@H](Cc1(cccc(C(=O)O)c1C(=O)O))C(=O)O

>  <INCHIKEY>  (2124) 
JUZYXEOXTGILKZ-ZETCQYMHSA-N

$$$$
Ala_pyrid3yl_2Cl
     RDKit          2D

 13 13  0  0  0  0  0  0  0  0999 V2000
   -1.4864    1.8099    0.0000 N   0  0  0  0  0  0  0  0  0  0  0  0
   -1.7669    0.3364    0.0000 C   0  0  0  0  0  0  0  0  0  0  0  0
   -0.6311   -0.6433    0.0000 C   0  0  0  0  0  0  0  0  0  0  0  0
    0.7853   -0.1495    0.0000 C   0  0  0  0  0  0  0  0  0  0  0  0
    1.0658    1.3241    0.0000 C   0  0  0  0  0  0  0  0  0  0  0  0
    2.4822    1.8179    0.0000 C   0  0  0  0  0  0  0  0  0  0  0  0
    3.6181    0.8382    0.0000 C   0  0  0  0  0  0  0  0  0  0  0  0
    3.3376   -0.6353    0.0000 N   0  0  0  0  0  0  0  0  0  0  0  0
    1.9212   -1.1292    0.0000 C   0  0  0  0  0  0  0  0  0  0  0  0
    1.6407   -2.6027    0.0000 Cl  0  0  0  0  0  0  0  0  0  0  0  0
   -3.1833   -0.1575    0.0000 C   0  0  0  0  0  0  0  0  0  0  0  0
   -3.4638   -1.6310    0.0000 O   0  0  0  0  0  0  0  0  0  0  0  0
   -4.3192    0.8222    0.0000 O   0  0  0  0  0  0  0  0  0  0  0  0
  2  1  1  1
  2  3  1  0
  3  4  1  0
  4  5  2  0
  5  6  1  0
  6  7  2  0
  7  8  1  0
  8  9  2  0
  9 10  1  0
  2 11  1  0
 11 12  2  0
 11 13  1  0
  9  4  1  0
M  END
>  <rName>  (2125) 
Ala_pyrid3yl_2Cl

>  <PQ_SYMBOL>  (2125) 
Ala_pyrid3yl_2Cl

>  <FULL_NAME>  (2125) 
(S)-2-amino-3-(2-chloropyridin-3-yl)propanoic acid

>  <IUPAC_CONDENSED>  (2125) 
Ala(pyrid-3-yl(2-Cl))

>  <IUPAC>  (2125) 
(2S)-2-amino-3-(2-chloropyridin-3-yl)propanoic acid

>  <TYPE>  (2125) 
Backbone

>  <CLASS>  (2125) 
alpha

>  <ANALOG>  (2125) 
Phe

>  <MOL_WT>  (2125) 
200.62499999999997

>  <LOGP>  (2125) 
0.6894

>  <TPSA>  (2125) 
76.21

>  <POPULARITY>  (2125) 
3

>  <PROTECTED>  (2125) 
TRUE

>  <SMILES>  (2125) 
N[C@@H](Cc1(cccnc1Cl))C(=O)O

>  <INCHIKEY>  (2125) 
AUQSTZZDULUDDX-LURJTMIESA-N

$$$$
Ala_pyrazol4yl_1iBu
     RDKit          2D

 15 15  0  0  0  0  0  0  0  0999 V2000
   -2.1401    1.6740    0.0000 N   0  0  0  0  0  0  0  0  0  0  0  0
   -2.8064    0.3301    0.0000 C   0  0  0  0  0  0  0  0  0  0  0  0
   -1.9757   -0.9189    0.0000 C   0  0  0  0  0  0  0  0  0  0  0  0
   -0.4787   -0.8240    0.0000 C   0  0  0  0  0  0  0  0  0  0  0  0
    0.4780   -1.9793    0.0000 C   0  0  0  0  0  0  0  0  0  0  0  0
    1.8724   -1.4264    0.0000 N   0  0  0  0  0  0  0  0  0  0  0  0
    1.7775    0.0706    0.0000 N   0  0  0  0  0  0  0  0  0  0  0  0
    0.3244    0.4429    0.0000 C   0  0  0  0  0  0  0  0  0  0  0  0
    2.9328    1.0273    0.0000 C   0  0  0  0  0  0  0  0  0  0  0  0
    4.3389    0.5052    0.0000 C   0  0  0  0  0  0  0  0  0  0  0  0
    5.4942    1.4619    0.0000 C   0  0  0  0  0  0  0  0  0  0  0  0
    4.5898   -0.9737    0.0000 C   0  0  0  0  0  0  0  0  0  0  0  0
   -4.3034    0.2351    0.0000 C   0  0  0  0  0  0  0  0  0  0  0  0
   -4.9697   -1.1088    0.0000 O   0  0  0  0  0  0  0  0  0  0  0  0
   -5.1341    1.4841    0.0000 O   0  0  0  0  0  0  0  0  0  0  0  0
  2  1  1  1
  2  3  1  0
  3  4  1  0
  4  5  1  0
  5  6  2  0
  6  7  1  0
  7  8  1  0
  7  9  1  0
  9 10  1  0
 10 11  1  0
 10 12  1  0
  2 13  1  0
 13 14  2  0
 13 15  1  0
  8  4  2  0
M  END
>  <rName>  (2126) 
Ala_pyrazol4yl_1iBu

>  <PQ_SYMBOL>  (2126) 
Ala_pyrazol4yl_1iBu

>  <FULL_NAME>  (2126) 
(S)-2-amino-3-(1-isobutyl-1H-pyrazol-4-yl)propanoic acid

>  <IUPAC_CONDENSED>  (2126) 
Ala(pyrazol-4-yl(1-iBu))

>  <IUPAC>  (2126) 
(2S)-2-amino-3-(1-(2-methylpropyl)-1H-pyrazol-4-yl)propanoic acid

>  <TYPE>  (2126) 
Backbone

>  <CLASS>  (2126) 
alpha

>  <ANALOG>  (2126) 
Phe

>  <MOL_WT>  (2126) 
211.265

>  <LOGP>  (2126) 
0.49349999999999955

>  <TPSA>  (2126) 
81.14

>  <POPULARITY>  (2126) 
3.3

>  <PROTECTED>  (2126) 
TRUE

>  <SMILES>  (2126) 
N[C@@H](Cc1(cnn(c1)CC(C)C))C(=O)O

>  <INCHIKEY>  (2126) 
KOJUSTKPKCMFJP-VIFPVBQESA-N

$$$$
Ala_99diMefluorenyl
     RDKit          2D

 21 23  0  0  0  0  0  0  0  0999 V2000
   -3.1814    1.5161    0.0000 N   0  0  0  0  0  0  0  0  0  0  0  0
   -3.9320    0.2173    0.0000 C   0  0  0  0  0  0  0  0  0  0  0  0
   -3.1825   -1.0820    0.0000 C   0  0  0  0  0  0  0  0  0  0  0  0
   -1.6825   -1.0826    0.0000 C   0  0  0  0  0  0  0  0  0  0  0  0
   -0.9330   -2.3819    0.0000 C   0  0  0  0  0  0  0  0  0  0  0  0
    0.5670   -2.3825    0.0000 C   0  0  0  0  0  0  0  0  0  0  0  0
    1.3175   -1.0838    0.0000 C   0  0  0  0  0  0  0  0  0  0  0  0
    2.7849   -0.7725    0.0000 C   0  0  0  0  0  0  0  0  0  0  0  0
    3.9981   -1.6546    0.0000 C   0  0  0  0  0  0  0  0  0  0  0  0
    5.3686   -1.0450    0.0000 C   0  0  0  0  0  0  0  0  0  0  0  0
    5.5260    0.4467    0.0000 C   0  0  0  0  0  0  0  0  0  0  0  0
    4.3128    1.3288    0.0000 C   0  0  0  0  0  0  0  0  0  0  0  0
    2.9423    0.7193    0.0000 C   0  0  0  0  0  0  0  0  0  0  0  0
    1.5722    1.3299    0.0000 C   0  0  0  0  0  0  0  0  0  0  0  0
    2.3227    2.6286    0.0000 C   0  0  0  0  0  0  0  0  0  0  0  0
    0.3590    2.2121    0.0000 C   0  0  0  0  0  0  0  0  0  0  0  0
    0.5680    0.2156    0.0000 C   0  0  0  0  0  0  0  0  0  0  0  0
   -0.9320    0.2162    0.0000 C   0  0  0  0  0  0  0  0  0  0  0  0
   -5.4320    0.2179    0.0000 C   0  0  0  0  0  0  0  0  0  0  0  0
   -6.1825   -1.0808    0.0000 O   0  0  0  0  0  0  0  0  0  0  0  0
   -6.1814    1.5173    0.0000 O   0  0  0  0  0  0  0  0  0  0  0  0
  2  1  1  1
  2  3  1  0
  3  4  1  0
  4  5  2  0
  5  6  1  0
  6  7  2  0
  7  8  1  0
  8  9  2  0
  9 10  1  0
 10 11  2  0
 11 12  1  0
 12 13  2  0
 13 14  1  0
 14 15  1  0
 14 16  1  0
 14 17  1  0
 17 18  2  0
  2 19  1  0
 19 20  2  0
 19 21  1  0
 13  8  1  0
 17  7  1  0
 18  4  1  0
M  END
>  <rName>  (2127) 
Ala_99diMefluorenyl

>  <PQ_SYMBOL>  (2127) 
Ala_99diMefluorenyl

>  <FULL_NAME>  (2127) 
(S)-2-amino-3-(9,9-dimethyl-9H-fluoren-2-yl)propanoic acid

>  <IUPAC_CONDENSED>  (2127) 
Ala(9,9-diMe-fluorenyl)

>  <IUPAC>  (2127) 
(2S)-2-amino-3-(8,8-dimethyltricyclo[7.4.0.0^{2,7}]trideca-1(13),2,4,6,9,11-hexaen-5-yl)propanoic acid

>  <TYPE>  (2127) 
Backbone

>  <CLASS>  (2127) 
alpha

>  <ANALOG>  (2127) 
Phe

>  <MOL_WT>  (2127) 
281.35499999999996

>  <LOGP>  (2127) 
2.947300000000001

>  <TPSA>  (2127) 
63.32000000000001

>  <POPULARITY>  (2127) 
2.2

>  <PROTECTED>  (2127) 
TRUE

>  <SMILES>  (2127) 
N[C@@H](Cc3(ccc2(c1(ccccc1C(C)(C)c2c3))))C(=O)O

>  <INCHIKEY>  (2127) 
XYGQCDLPJJUHTD-INIZCTEOSA-N

$$$$
Nle_44diMe
     RDKit          2D

 11 10  0  0  0  0  0  0  0  0999 V2000
    0.5813   -1.6858    0.0000 N   0  0  0  0  0  0  0  0  0  0  0  0
    1.0339   -0.2557    0.0000 C   0  0  0  0  0  0  0  0  0  0  0  0
    0.0217    0.8513    0.0000 C   0  0  0  0  0  0  0  0  0  0  0  0
   -1.4431    0.5282    0.0000 C   0  0  0  0  0  0  0  0  0  0  0  0
   -1.7663    1.9930    0.0000 C   0  0  0  0  0  0  0  0  0  0  0  0
   -1.1200   -0.9366    0.0000 C   0  0  0  0  0  0  0  0  0  0  0  0
   -2.9079    0.2050    0.0000 C   0  0  0  0  0  0  0  0  0  0  0  0
   -3.3605   -1.2251    0.0000 C   0  0  0  0  0  0  0  0  0  0  0  0
    2.4987    0.0675    0.0000 C   0  0  0  0  0  0  0  0  0  0  0  0
    2.9512    1.4976    0.0000 O   0  0  0  0  0  0  0  0  0  0  0  0
    3.5109   -1.0395    0.0000 O   0  0  0  0  0  0  0  0  0  0  0  0
  2  1  1  1
  2  3  1  0
  3  4  1  0
  4  5  1  0
  4  6  1  0
  4  7  1  0
  7  8  1  0
  2  9  1  0
  9 10  2  0
  9 11  1  0
M  END
>  <rName>  (2128) 
Nle_44diMe

>  <PQ_SYMBOL>  (2128) 
Nle_44diMe

>  <FULL_NAME>  (2128) 
(S)-2-amino-4,4-dimethylhexanoic acid

>  <IUPAC_CONDENSED>  (2128) 
Nle(4,4-diMe)

>  <IUPAC>  (2128) 
(2S)-2-amino-4,4-dimethylhexanoic acid

>  <TYPE>  (2128) 
Backbone

>  <CLASS>  (2128) 
alpha

>  <ANALOG>  (2128) 
Leu

>  <MOL_WT>  (2128) 
159.22899999999998

>  <LOGP>  (2128) 
1.2245999999999997

>  <TPSA>  (2128) 
63.32000000000001

>  <POPULARITY>  (2128) 
10.6

>  <PROTECTED>  (2128) 
TRUE

>  <SMILES>  (2128) 
N[C@@H](CC(C)(C)CC)C(=O)O

>  <INCHIKEY>  (2128) 
UUJYECQXYRUUEJ-LURJTMIESA-N

$$$$
D-Nle_44diMe
     RDKit          2D

 11 10  0  0  0  0  0  0  0  0999 V2000
    0.5813   -1.6858    0.0000 N   0  0  0  0  0  0  0  0  0  0  0  0
    1.0339   -0.2557    0.0000 C   0  0  0  0  0  0  0  0  0  0  0  0
    0.0217    0.8513    0.0000 C   0  0  0  0  0  0  0  0  0  0  0  0
   -1.4431    0.5282    0.0000 C   0  0  0  0  0  0  0  0  0  0  0  0
   -1.7663    1.9930    0.0000 C   0  0  0  0  0  0  0  0  0  0  0  0
   -1.1200   -0.9366    0.0000 C   0  0  0  0  0  0  0  0  0  0  0  0
   -2.9079    0.2050    0.0000 C   0  0  0  0  0  0  0  0  0  0  0  0
   -3.3605   -1.2251    0.0000 C   0  0  0  0  0  0  0  0  0  0  0  0
    2.4987    0.0675    0.0000 C   0  0  0  0  0  0  0  0  0  0  0  0
    2.9512    1.4976    0.0000 O   0  0  0  0  0  0  0  0  0  0  0  0
    3.5109   -1.0395    0.0000 O   0  0  0  0  0  0  0  0  0  0  0  0
  2  1  1  6
  2  3  1  0
  3  4  1  0
  4  5  1  0
  4  6  1  0
  4  7  1  0
  7  8  1  0
  2  9  1  0
  9 10  2  0
  9 11  1  0
M  END
>  <rName>  (2129) 
D-Nle_44diMe

>  <PQ_SYMBOL>  (2129) 
D-Nle_44diMe

>  <FULL_NAME>  (2129) 
(R)-2-amino-4,4-dimethylhexanoic acid

>  <IUPAC_CONDENSED>  (2129) 
D-Nle(4,4-diMe)

>  <IUPAC>  (2129) 
(2R)-2-amino-4,4-dimethylhexanoic acid

>  <TYPE>  (2129) 
Backbone

>  <CLASS>  (2129) 
alpha

>  <ANALOG>  (2129) 
Leu

>  <MOL_WT>  (2129) 
159.22899999999998

>  <LOGP>  (2129) 
1.2245999999999997

>  <TPSA>  (2129) 
63.32000000000001

>  <POPULARITY>  (2129) 
10.4

>  <PROTECTED>  (2129) 
TRUE

>  <SMILES>  (2129) 
N[C@H](CC(C)(C)CC)C(=O)O

>  <INCHIKEY>  (2129) 
UUJYECQXYRUUEJ-ZCFIWIBFSA-N

$$$$
Phe_2Cl_4OMe
     RDKit          2D

 15 15  0  0  0  0  0  0  0  0999 V2000
   -2.1188    1.8386    0.0000 N   0  0  0  0  0  0  0  0  0  0  0  0
   -2.4941    0.3864    0.0000 C   0  0  0  0  0  0  0  0  0  0  0  0
   -1.4241   -0.6648    0.0000 C   0  0  0  0  0  0  0  0  0  0  0  0
    0.0213   -0.2637    0.0000 C   0  0  0  0  0  0  0  0  0  0  0  0
    0.3966    1.1886    0.0000 C   0  0  0  0  0  0  0  0  0  0  0  0
    1.8420    1.5897    0.0000 C   0  0  0  0  0  0  0  0  0  0  0  0
    2.9120    0.5385    0.0000 C   0  0  0  0  0  0  0  0  0  0  0  0
    4.3574    0.9396    0.0000 O   0  0  0  0  0  0  0  0  0  0  0  0
    5.4275   -0.1116    0.0000 C   0  0  0  0  0  0  0  0  0  0  0  0
    2.5367   -0.9138    0.0000 C   0  0  0  0  0  0  0  0  0  0  0  0
    1.0914   -1.3149    0.0000 C   0  0  0  0  0  0  0  0  0  0  0  0
    0.7160   -2.7672    0.0000 Cl  0  0  0  0  0  0  0  0  0  0  0  0
   -3.9395   -0.0148    0.0000 C   0  0  0  0  0  0  0  0  0  0  0  0
   -4.3148   -1.4670    0.0000 O   0  0  0  0  0  0  0  0  0  0  0  0
   -5.0096    1.0364    0.0000 O   0  0  0  0  0  0  0  0  0  0  0  0
  2  1  1  1
  2  3  1  0
  3  4  1  0
  4  5  1  0
  5  6  2  0
  6  7  1  0
  7  8  1  0
  8  9  1  0
  7 10  2  0
 10 11  1  0
 11 12  1  0
  2 13  1  0
 13 14  2  0
 13 15  1  0
 11  4  2  0
M  END
>  <rName>  (2130) 
Phe_2Cl_4OMe

>  <PQ_SYMBOL>  (2130) 
Phe_2Cl_4OMe

>  <FULL_NAME>  (2130) 
(S)-2-amino-3-(2-chloro-4-methoxyphenyl)propanoic acid

>  <IUPAC_CONDENSED>  (2130) 
Phe(2-Cl,4-OMe)

>  <IUPAC>  (2130) 
(2S)-2-amino-3-(2-chloro-4-methoxyphenyl)propanoic acid

>  <TYPE>  (2130) 
Backbone

>  <CLASS>  (2130) 
alpha

>  <ANALOG>  (2130) 
Tyr

>  <MOL_WT>  (2130) 
229.66299999999998

>  <LOGP>  (2130) 
1.303

>  <TPSA>  (2130) 
72.55

>  <POPULARITY>  (2130) 
3.9

>  <PROTECTED>  (2130) 
TRUE

>  <SMILES>  (2130) 
N[C@@H](Cc1(ccc(OC)cc1Cl))C(=O)O

>  <INCHIKEY>  (2130) 
XOTYDECZAOQPHR-VIFPVBQESA-N

$$$$
D-Pro_4RN3
     RDKit          2D

 11 11  0  0  0  0  0  0  0  0999 V2000
    1.2535   -1.6430    0.0000 N   0  0  0  0  0  0  0  0  0  0  0  0
    1.2696   -0.1431    0.0000 C   0  0  0  0  0  0  0  0  0  0  0  0
   -0.1519    0.3357    0.0000 C   0  0  0  0  0  0  0  0  0  0  0  0
   -1.0466   -0.8682    0.0000 C   0  0  0  0  0  0  0  0  0  0  0  0
   -0.1780   -2.0912    0.0000 C   0  0  0  0  0  0  0  0  0  0  0  0
   -2.5465   -0.8521    0.0000 N   0  0  0  0  0  0  0  0  0  0  0  0
   -3.2825    0.4549    0.0000 N   0  0  0  0  0  0  0  0  0  0  0  0
   -4.0185    1.7619    0.0000 N   0  0  0  0  0  0  0  0  0  0  0  0
    2.4926    0.7255    0.0000 C   0  0  0  0  0  0  0  0  0  0  0  0
    2.3518    2.2189    0.0000 O   0  0  0  0  0  0  0  0  0  0  0  0
    3.8563    0.1007    0.0000 O   0  0  0  0  0  0  0  0  0  0  0  0
  1  2  1  0
  2  3  1  0
  3  4  1  0
  4  5  1  0
  4  6  1  6
  6  7  2  0
  7  8  2  0
  2  9  1  6
  9 10  2  0
  9 11  1  0
  5  1  1  0
M  CHG  2   7   1   8  -1
M  END
>  <rName>  (2131) 
D-Pro_4RN3

>  <PQ_SYMBOL>  (2131) 
D-Pro_4RN3

>  <FULL_NAME>  (2131) 
(2R,4R)-4-azidopyrrolidine-2-carboxylic acid

>  <IUPAC_CONDENSED>  (2131) 
D-Pro(4R-N3)

>  <IUPAC>  (2131) 
(2R,4R)-4-azidopyrrolidine-2-carboxylic acid

>  <TYPE>  (2131) 
Backbone

>  <CLASS>  (2131) 
alpha

>  <ANALOG>  (2131) 
Pro

>  <MOL_WT>  (2131) 
156.14500000000004

>  <LOGP>  (2131) 
0.11179999999999962

>  <TPSA>  (2131) 
98.09000000000002

>  <POPULARITY>  (2131) 
6.9

>  <PROTECTED>  (2131) 
TRUE

>  <SMILES>  (2131) 
N1[C@H](C[C@H](C1)N=[N+]=[N-])C(=O)O

>  <INCHIKEY>  (2131) 
PPRFZPZRQYPCER-QWWZWVQMSA-N

$$$$
3Pal_5Me_6F
     RDKit          2D

 14 14  0  0  0  0  0  0  0  0999 V2000
   -2.0094    1.6916    0.0000 N   0  0  0  0  0  0  0  0  0  0  0  0
   -2.3243    0.2250    0.0000 C   0  0  0  0  0  0  0  0  0  0  0  0
   -1.2116   -0.7809    0.0000 C   0  0  0  0  0  0  0  0  0  0  0  0
    0.2159   -0.3203    0.0000 C   0  0  0  0  0  0  0  0  0  0  0  0
    0.5308    1.1463    0.0000 C   0  0  0  0  0  0  0  0  0  0  0  0
    1.9583    1.6069    0.0000 N   0  0  0  0  0  0  0  0  0  0  0  0
    3.0710    0.6009    0.0000 C   0  0  0  0  0  0  0  0  0  0  0  0
    4.4985    1.0615    0.0000 F   0  0  0  0  0  0  0  0  0  0  0  0
    2.7561   -0.8657    0.0000 C   0  0  0  0  0  0  0  0  0  0  0  0
    3.8688   -1.8716    0.0000 C   0  0  0  0  0  0  0  0  0  0  0  0
    1.3286   -1.3263    0.0000 C   0  0  0  0  0  0  0  0  0  0  0  0
   -3.7518   -0.2356    0.0000 C   0  0  0  0  0  0  0  0  0  0  0  0
   -4.0666   -1.7022    0.0000 O   0  0  0  0  0  0  0  0  0  0  0  0
   -4.8644    0.7704    0.0000 O   0  0  0  0  0  0  0  0  0  0  0  0
  2  1  1  1
  2  3  1  0
  3  4  1  0
  4  5  1  0
  5  6  2  0
  6  7  1  0
  7  8  1  0
  7  9  2  0
  9 10  1  0
  9 11  1  0
  2 12  1  0
 12 13  2  0
 12 14  1  0
 11  4  2  0
M  END
>  <rName>  (2132) 
3Pal_5Me_6F

>  <PQ_SYMBOL>  (2132) 
3Pal_5Me_6F

>  <FULL_NAME>  (2132) 
(S)-2-amino-3-(6-fluoro-5-methylpyridin-3-yl)propanoic acid

>  <IUPAC_CONDENSED>  (2132) 
3Pal(5-Me,6-F)

>  <IUPAC>  (2132) 
(2S)-2-amino-3-(6-fluoro-5-methylpyridin-3-yl)propanoic acid

>  <TYPE>  (2132) 
Backbone

>  <CLASS>  (2132) 
alpha

>  <ANALOG>  (2132) 
Phe

>  <MOL_WT>  (2132) 
198.197

>  <LOGP>  (2132) 
0.4835199999999999

>  <TPSA>  (2132) 
76.21

>  <POPULARITY>  (2132) 
2.5

>  <PROTECTED>  (2132) 
TRUE

>  <SMILES>  (2132) 
N[C@@H](Cc1(cnc(F)c(C)c1))C(=O)O

>  <INCHIKEY>  (2132) 
RFZPUAIXKQDNIF-ZETCQYMHSA-N

$$$$
3Pal_5CO2H
     RDKit          2D

 15 15  0  0  0  0  0  0  0  0999 V2000
   -2.6461    1.6149    0.0000 N   0  0  0  0  0  0  0  0  0  0  0  0
   -2.6827    0.1154    0.0000 C   0  0  0  0  0  0  0  0  0  0  0  0
   -1.4023   -0.6660    0.0000 C   0  0  0  0  0  0  0  0  0  0  0  0
   -0.0854    0.0521    0.0000 C   0  0  0  0  0  0  0  0  0  0  0  0
   -0.0488    1.5516    0.0000 C   0  0  0  0  0  0  0  0  0  0  0  0
    1.2681    2.2698    0.0000 N   0  0  0  0  0  0  0  0  0  0  0  0
    2.5485    1.4884    0.0000 C   0  0  0  0  0  0  0  0  0  0  0  0
    2.5119   -0.0112    0.0000 C   0  0  0  0  0  0  0  0  0  0  0  0
    1.1950   -0.7293    0.0000 C   0  0  0  0  0  0  0  0  0  0  0  0
    3.7923   -0.7926    0.0000 C   0  0  0  0  0  0  0  0  0  0  0  0
    5.1093   -0.0745    0.0000 O   0  0  0  0  0  0  0  0  0  0  0  0
    3.7558   -2.2922    0.0000 O   0  0  0  0  0  0  0  0  0  0  0  0
   -3.9996   -0.6028    0.0000 C   0  0  0  0  0  0  0  0  0  0  0  0
   -4.0361   -2.1023    0.0000 O   0  0  0  0  0  0  0  0  0  0  0  0
   -5.2800    0.1787    0.0000 O   0  0  0  0  0  0  0  0  0  0  0  0
  2  1  1  1
  2  3  1  0
  3  4  1  0
  4  5  1  0
  5  6  2  0
  6  7  1  0
  7  8  2  0
  8  9  1  0
  8 10  1  0
 10 11  2  0
 10 12  1  0
  2 13  1  0
 13 14  2  0
 13 15  1  0
  9  4  2  0
M  END
>  <rName>  (2133) 
3Pal_5CO2H

>  <PQ_SYMBOL>  (2133) 
3Pal_5CO2H

>  <FULL_NAME>  (2133) 
(S)-5-(2-amino-2-carboxyethyl)nicotinic acid

>  <IUPAC_CONDENSED>  (2133) 
3Pal(5-CO2H)

>  <IUPAC>  (2133) 
5-((2S)-2-amino-3-hydroxy-3-oxopropyl)pyridine-3-carboxylic acid

>  <TYPE>  (2133) 
Backbone

>  <CLASS>  (2133) 
alpha

>  <ANALOG>  (2133) 
Phe

>  <MOL_WT>  (2133) 
210.18899999999996

>  <LOGP>  (2133) 
-0.26580000000000054

>  <TPSA>  (2133) 
113.51

>  <POPULARITY>  (2133) 
2.7

>  <PROTECTED>  (2133) 
TRUE

>  <SMILES>  (2133) 
N[C@@H](Cc1(cncc(c1)C(=O)O))C(=O)O

>  <INCHIKEY>  (2133) 
DDHAKORAIDBOED-ZETCQYMHSA-N

$$$$
Phe_2NH2_4CN
     RDKit          2D

 15 15  0  0  0  0  0  0  0  0999 V2000
   -2.0190    1.8851    0.0000 N   0  0  0  0  0  0  0  0  0  0  0  0
   -2.4933    0.4621    0.0000 C   0  0  0  0  0  0  0  0  0  0  0  0
   -1.4981   -0.6602    0.0000 C   0  0  0  0  0  0  0  0  0  0  0  0
   -0.0285   -0.3594    0.0000 C   0  0  0  0  0  0  0  0  0  0  0  0
    0.4458    1.0636    0.0000 C   0  0  0  0  0  0  0  0  0  0  0  0
    1.9153    1.3644    0.0000 C   0  0  0  0  0  0  0  0  0  0  0  0
    2.9106    0.2421    0.0000 C   0  0  0  0  0  0  0  0  0  0  0  0
    4.3801    0.5428    0.0000 C   0  0  0  0  0  0  0  0  0  0  0  0
    5.8496    0.8436    0.0000 N   0  0  0  0  0  0  0  0  0  0  0  0
    2.4363   -1.1810    0.0000 C   0  0  0  0  0  0  0  0  0  0  0  0
    0.9667   -1.4817    0.0000 C   0  0  0  0  0  0  0  0  0  0  0  0
    0.4924   -2.9047    0.0000 N   0  0  0  0  0  0  0  0  0  0  0  0
   -3.9628    0.1614    0.0000 C   0  0  0  0  0  0  0  0  0  0  0  0
   -4.4371   -1.2617    0.0000 O   0  0  0  0  0  0  0  0  0  0  0  0
   -4.9581    1.2836    0.0000 O   0  0  0  0  0  0  0  0  0  0  0  0
  2  1  1  1
  2  3  1  0
  3  4  1  0
  4  5  1  0
  5  6  2  0
  6  7  1  0
  7  8  1  0
  8  9  3  0
  7 10  2  0
 10 11  1  0
 11 12  1  0
  2 13  1  0
 13 14  2  0
 13 15  1  0
 11  4  2  0
M  END
>  <rName>  (2134) 
Phe_2NH2_4CN

>  <PQ_SYMBOL>  (2134) 
Phe_2NH2_4CN

>  <FULL_NAME>  (2134) 
(S)-2-amino-3-(2-amino-4-cyanophenyl)propanoic acid

>  <IUPAC_CONDENSED>  (2134) 
Phe(2-NH2,4-CN)

>  <IUPAC>  (2134) 
(2S)-2-amino-3-(2-amino-4-(nitrilomethyl)phenyl)propanoic acid

>  <TYPE>  (2134) 
Backbone

>  <CLASS>  (2134) 
alpha

>  <ANALOG>  (2134) 
Phe

>  <MOL_WT>  (2134) 
205.21699999999998

>  <LOGP>  (2134) 
0.09487999999999991

>  <TPSA>  (2134) 
113.13000000000001

>  <POPULARITY>  (2134) 
2.8

>  <PROTECTED>  (2134) 
TRUE

>  <SMILES>  (2134) 
N[C@@H](Cc1(ccc(C#N)cc1N))C(=O)O

>  <INCHIKEY>  (2134) 
GURRFLGVWOKQHJ-VIFPVBQESA-N

$$$$
Hyp_CHF2
     RDKit          2D

 12 12  0  0  0  0  0  0  0  0999 V2000
    1.5111   -1.6952    0.0000 N   0  0  0  0  0  0  0  0  0  0  0  0
    1.5414   -0.1955    0.0000 C   0  0  0  0  0  0  0  0  0  0  0  0
    0.1245    0.2967    0.0000 C   0  0  0  0  0  0  0  0  0  0  0  0
   -0.7815   -0.8988    0.0000 C   0  0  0  0  0  0  0  0  0  0  0  0
   -2.2812   -0.8686    0.0000 O   0  0  0  0  0  0  0  0  0  0  0  0
   -3.0049    0.4453    0.0000 C   0  0  0  0  0  0  0  0  0  0  0  0
   -4.5046    0.4756    0.0000 F   0  0  0  0  0  0  0  0  0  0  0  0
   -2.2288    1.7290    0.0000 F   0  0  0  0  0  0  0  0  0  0  0  0
    0.0755   -2.1299    0.0000 C   0  0  0  0  0  0  0  0  0  0  0  0
    2.7725    0.6615    0.0000 C   0  0  0  0  0  0  0  0  0  0  0  0
    2.6458    2.1561    0.0000 O   0  0  0  0  0  0  0  0  0  0  0  0
    4.1302    0.0239    0.0000 O   0  0  0  0  0  0  0  0  0  0  0  0
  1  2  1  0
  2  3  1  0
  3  4  1  0
  4  5  1  0
  5  6  1  0
  6  7  1  0
  6  8  1  0
  4  9  1  0
  2 10  1  1
 10 11  2  0
 10 12  1  0
  9  1  1  0
M  END
>  <rName>  (2135) 
Hyp_CHF2

>  <PQ_SYMBOL>  (2135) 
Hyp_CHF2

>  <FULL_NAME>  (2135) 
(2S)-4-(difluoromethoxy)pyrrolidine-2-carboxylic acid

>  <IUPAC_CONDENSED>  (2135) 
Hyp(CHF2)

>  <IUPAC>  (2135) 
(2S)-4-((difluoromethyl)oxy)pyrrolidine-2-carboxylic acid

>  <TYPE>  (2135) 
Backbone

>  <CLASS>  (2135) 
alpha

>  <ANALOG>  (2135) 
Pro

>  <MOL_WT>  (2135) 
181.138

>  <LOGP>  (2135) 
0.0406999999999999

>  <TPSA>  (2135) 
58.56

>  <POPULARITY>  (2135) 
4.3

>  <PROTECTED>  (2135) 
TRUE

>  <SMILES>  (2135) 
N1[C@@H](CC(OC(F)F)C1)C(=O)O

>  <INCHIKEY>  (2135) 
YYWVQGXOBZCIRD-BKLSDQPFSA-N

$$$$
Trp_Me_Aza
     RDKit          2D

 16 17  0  0  0  0  0  0  0  0999 V2000
   -2.5941    1.4623    0.0000 N   0  0  0  0  0  0  0  0  0  0  0  0
   -2.4986   -0.0347    0.0000 C   0  0  0  0  0  0  0  0  0  0  0  0
   -1.1544   -0.7005    0.0000 C   0  0  0  0  0  0  0  0  0  0  0  0
    0.0942    0.1307    0.0000 C   0  0  0  0  0  0  0  0  0  0  0  0
    1.5006   -0.3909    0.0000 C   0  0  0  0  0  0  0  0  0  0  0  0
    2.0540   -1.7851    0.0000 C   0  0  0  0  0  0  0  0  0  0  0  0
    3.5381   -2.0030    0.0000 C   0  0  0  0  0  0  0  0  0  0  0  0
    4.4688   -0.8266    0.0000 C   0  0  0  0  0  0  0  0  0  0  0  0
    3.9154    0.5676    0.0000 C   0  0  0  0  0  0  0  0  0  0  0  0
    2.4313    0.7854    0.0000 C   0  0  0  0  0  0  0  0  0  0  0  0
    1.6001    2.0341    0.0000 N   0  0  0  0  0  0  0  0  0  0  0  0
    0.1557    1.6294    0.0000 N   0  0  0  0  0  0  0  0  0  0  0  0
   -1.0206    2.5601    0.0000 C   0  0  0  0  0  0  0  0  0  0  0  0
   -3.7473   -0.8659    0.0000 C   0  0  0  0  0  0  0  0  0  0  0  0
   -3.6518   -2.3628    0.0000 O   0  0  0  0  0  0  0  0  0  0  0  0
   -5.0914   -0.2001    0.0000 O   0  0  0  0  0  0  0  0  0  0  0  0
  2  1  1  1
  2  3  1  0
  3  4  1  0
  4  5  2  0
  5  6  1  0
  6  7  2  0
  7  8  1  0
  8  9  2  0
  9 10  1  0
 10 11  2  0
 11 12  1  0
 12 13  1  0
  2 14  1  0
 14 15  2  0
 14 16  1  0
 10  5  1  0
 12  4  1  0
M  END
>  <rName>  (2136) 
Trp_Me_Aza

>  <PQ_SYMBOL>  (2136) 
Trp_Me_Aza

>  <FULL_NAME>  (2136) 
(S)-2-amino-3-(2-methyl-2H-indazol-3-yl)propanoic acid

>  <IUPAC_CONDENSED>  (2136) 
Trp(Me,Aza)

>  <IUPAC>  (2136) 
(2S)-2-amino-3-(8-methyl-7,8-diazabicyclo[4.3.0]nona-1(9),2,4,6-tetraen-9-yl)propanoic acid

>  <TYPE>  (2136) 
Backbone

>  <CLASS>  (2136) 
alpha

>  <ANALOG>  (2136) 
Phe

>  <MOL_WT>  (2136) 
219.24399999999997

>  <LOGP>  (2136) 
0.5276999999999998

>  <TPSA>  (2136) 
81.14

>  <POPULARITY>  (2136) 
2.4

>  <PROTECTED>  (2136) 
TRUE

>  <SMILES>  (2136) 
N[C@@H](Cc2(c1(ccccc1nn2C)))C(=O)O

>  <INCHIKEY>  (2136) 
IRNJNDFDUGJAFV-QMMMGPOBSA-N

$$$$
3Pal_2NH2_6Me
     RDKit          2D

 14 14  0  0  0  0  0  0  0  0999 V2000
   -1.7174    1.8436    0.0000 N   0  0  0  0  0  0  0  0  0  0  0  0
   -2.1036    0.3942    0.0000 C   0  0  0  0  0  0  0  0  0  0  0  0
   -1.0414   -0.6650    0.0000 C   0  0  0  0  0  0  0  0  0  0  0  0
    0.4069   -0.2747    0.0000 C   0  0  0  0  0  0  0  0  0  0  0  0
    0.7931    1.1747    0.0000 C   0  0  0  0  0  0  0  0  0  0  0  0
    2.2415    1.5649    0.0000 C   0  0  0  0  0  0  0  0  0  0  0  0
    3.3036    0.5057    0.0000 C   0  0  0  0  0  0  0  0  0  0  0  0
    4.7520    0.8960    0.0000 C   0  0  0  0  0  0  0  0  0  0  0  0
    2.9174   -0.9437    0.0000 N   0  0  0  0  0  0  0  0  0  0  0  0
    1.4691   -1.3339    0.0000 C   0  0  0  0  0  0  0  0  0  0  0  0
    1.0829   -2.7834    0.0000 N   0  0  0  0  0  0  0  0  0  0  0  0
   -3.5519    0.0039    0.0000 C   0  0  0  0  0  0  0  0  0  0  0  0
   -3.9381   -1.4455    0.0000 O   0  0  0  0  0  0  0  0  0  0  0  0
   -4.6140    1.0631    0.0000 O   0  0  0  0  0  0  0  0  0  0  0  0
  2  1  1  1
  2  3  1  0
  3  4  1  0
  4  5  1  0
  5  6  2  0
  6  7  1  0
  7  8  1  0
  7  9  2  0
  9 10  1  0
 10 11  1  0
  2 12  1  0
 12 13  2  0
 12 14  1  0
 10  4  2  0
M  END
>  <rName>  (2137) 
3Pal_2NH2_6Me

>  <PQ_SYMBOL>  (2137) 
3Pal_2NH2_6Me

>  <FULL_NAME>  (2137) 
(S)-2-amino-3-(2-amino-6-methylpyridin-3-yl)propanoic acid

>  <IUPAC_CONDENSED>  (2137) 
3Pal(2-NH2,6-Me)

>  <IUPAC>  (2137) 
(2S)-2-amino-3-(2-amino-6-methylpyridin-3-yl)propanoic acid

>  <TYPE>  (2137) 
Backbone

>  <CLASS>  (2137) 
alpha

>  <ANALOG>  (2137) 
Phe

>  <MOL_WT>  (2137) 
195.22199999999998

>  <LOGP>  (2137) 
-0.07338000000000022

>  <TPSA>  (2137) 
102.23

>  <POPULARITY>  (2137) 
2.8

>  <PROTECTED>  (2137) 
TRUE

>  <SMILES>  (2137) 
N[C@@H](Cc1(ccc(C)nc1N))C(=O)O

>  <INCHIKEY>  (2137) 
SFNFZBURFTYTJX-ZETCQYMHSA-N

$$$$
Phe_4OEt
     RDKit          2D

 15 16  0  0  0  0  0  0  0  0999 V2000
    2.4169   -1.6715    0.0000 N   0  0  0  0  0  0  0  0  0  0  0  0
    2.6919   -0.1969    0.0000 C   0  0  0  0  0  0  0  0  0  0  0  0
    1.5524    0.7786    0.0000 C   0  0  0  0  0  0  0  0  0  0  0  0
    0.1379    0.2795    0.0000 C   0  0  0  0  0  0  0  0  0  0  0  0
   -0.1372   -1.1951    0.0000 C   0  0  0  0  0  0  0  0  0  0  0  0
   -1.5517   -1.6942    0.0000 C   0  0  0  0  0  0  0  0  0  0  0  0
   -2.6912   -0.7188    0.0000 C   0  0  0  0  0  0  0  0  0  0  0  0
   -4.1786   -0.9129    0.0000 O   0  0  0  0  0  0  0  0  0  0  0  0
   -4.8228    0.4417    0.0000 C   0  0  0  0  0  0  0  0  0  0  0  0
   -3.7336    1.4730    0.0000 C   0  0  0  0  0  0  0  0  0  0  0  0
   -2.4162    0.7558    0.0000 C   0  0  0  0  0  0  0  0  0  0  0  0
   -1.0016    1.2549    0.0000 C   0  0  0  0  0  0  0  0  0  0  0  0
    4.1064    0.3022    0.0000 C   0  0  0  0  0  0  0  0  0  0  0  0
    4.3814    1.7768    0.0000 O   0  0  0  0  0  0  0  0  0  0  0  0
    5.2459   -0.6732    0.0000 O   0  0  0  0  0  0  0  0  0  0  0  0
  2  1  1  1
  2  3  1  0
  3  4  1  0
  4  5  1  0
  5  6  2  0
  6  7  1  0
  7  8  1  0
  8  9  1  0
  9 10  1  0
 10 11  1  0
 11 12  1  0
  2 13  1  0
 13 14  2  0
 13 15  1  0
 11  7  2  0
 12  4  2  0
M  END
>  <rName>  (2138) 
Phe_4OEt

>  <PQ_SYMBOL>  (2138) 
Phe_4OEt

>  <FULL_NAME>  (2138) 
(S)-2-amino-3-(2,3-dihydrobenzofuran-5-yl)propanoic acid

>  <IUPAC_CONDENSED>  (2138) 
Phe(4-OEt)

>  <IUPAC>  (2138) 
(2S)-2-amino-3-(7-oxabicyclo[4.3.0]nona-1,3,5-trien-3-yl)propanoic acid

>  <TYPE>  (2138) 
Backbone

>  <CLASS>  (2138) 
alpha

>  <ANALOG>  (2138) 
Tyr

>  <MOL_WT>  (2138) 
207.22899999999996

>  <LOGP>  (2138) 
0.5758999999999999

>  <TPSA>  (2138) 
72.55

>  <POPULARITY>  (2138) 
4.7

>  <PROTECTED>  (2138) 
TRUE

>  <SMILES>  (2138) 
N[C@@H](Cc2(ccc1(OCCc1c2)))C(=O)O

>  <INCHIKEY>  (2138) 
HKGMTLHJHVAQAL-VIFPVBQESA-N

$$$$
Ala_indol1yl
     RDKit          2D

 15 16  0  0  0  0  0  0  0  0999 V2000
   -2.6183   -1.7023    0.0000 N   0  0  0  0  0  0  0  0  0  0  0  0
   -2.5622   -0.2034    0.0000 C   0  0  0  0  0  0  0  0  0  0  0  0
   -1.2360    0.4975    0.0000 C   0  0  0  0  0  0  0  0  0  0  0  0
    0.0341   -0.3006    0.0000 C   0  0  0  0  0  0  0  0  0  0  0  0
    0.1349   -1.7972    0.0000 C   0  0  0  0  0  0  0  0  0  0  0  0
    1.5895   -2.1637    0.0000 N   0  0  0  0  0  0  0  0  0  0  0  0
    2.3875   -0.8937    0.0000 N   0  0  0  0  0  0  0  0  0  0  0  0
    3.8654   -0.6369    0.0000 C   0  0  0  0  0  0  0  0  0  0  0  0
    4.3820    0.7713    0.0000 C   0  0  0  0  0  0  0  0  0  0  0  0
    3.4207    1.9228    0.0000 C   0  0  0  0  0  0  0  0  0  0  0  0
    1.9429    1.6661    0.0000 C   0  0  0  0  0  0  0  0  0  0  0  0
    1.4263    0.2578    0.0000 C   0  0  0  0  0  0  0  0  0  0  0  0
   -3.8322    0.5947    0.0000 C   0  0  0  0  0  0  0  0  0  0  0  0
   -3.7761    2.0937    0.0000 O   0  0  0  0  0  0  0  0  0  0  0  0
   -5.1584   -0.1061    0.0000 O   0  0  0  0  0  0  0  0  0  0  0  0
  2  1  1  6
  2  3  1  0
  3  4  1  0
  4  5  1  0
  5  6  2  0
  6  7  1  0
  7  8  1  0
  8  9  2  0
  9 10  1  0
 10 11  2  0
 11 12  1  0
  2 13  1  0
 13 14  2  0
 13 15  1  0
 12  7  1  0
 12  4  2  0
M  END
>  <rName>  (2139) 
Ala_indol1yl

>  <PQ_SYMBOL>  (2139) 
Ala_indol1yl

>  <FULL_NAME>  (2139) 
(S)-2-amino-3-(pyrazolo[1,5-a]pyridin-3-yl)propanoic acid

>  <IUPAC_CONDENSED>  (2139) 
Ala(indol-1-yl)

>  <IUPAC>  (2139) 
(2S)-2-amino-3-(1,9-diazabicyclo[4.3.0]nona-2,4,6,8-tetraen-7-yl)propanoic acid

>  <TYPE>  (2139) 
Backbone

>  <CLASS>  (2139) 
alpha

>  <ANALOG>  (2139) 
Phe

>  <MOL_WT>  (2139) 
205.21699999999998

>  <LOGP>  (2139) 
0.28869999999999946

>  <TPSA>  (2139) 
80.61999999999999

>  <POPULARITY>  (2139) 
2.7

>  <PROTECTED>  (2139) 
TRUE

>  <SMILES>  (2139) 
N[C@@H](Cc2(cnn1(ccccc12)))C(=O)O

>  <INCHIKEY>  (2139) 
KPOIYQLWQBUZIS-QMMMGPOBSA-N

$$$$
Ala_pyrid2yl_5F
     RDKit          2D

 13 13  0  0  0  0  0  0  0  0999 V2000
   -1.5766    1.6851    0.0000 N   0  0  0  0  0  0  0  0  0  0  0  0
   -2.0128    0.2500    0.0000 C   0  0  0  0  0  0  0  0  0  0  0  0
   -0.9880   -0.8454    0.0000 C   0  0  0  0  0  0  0  0  0  0  0  0
    0.4730   -0.5055    0.0000 C   0  0  0  0  0  0  0  0  0  0  0  0
    0.9092    0.9296    0.0000 C   0  0  0  0  0  0  0  0  0  0  0  0
    2.3702    1.2695    0.0000 C   0  0  0  0  0  0  0  0  0  0  0  0
    3.3950    0.1741    0.0000 C   0  0  0  0  0  0  0  0  0  0  0  0
    4.8560    0.5140    0.0000 F   0  0  0  0  0  0  0  0  0  0  0  0
    2.9588   -1.2611    0.0000 C   0  0  0  0  0  0  0  0  0  0  0  0
    1.4978   -1.6009    0.0000 N   0  0  0  0  0  0  0  0  0  0  0  0
   -3.4738   -0.0899    0.0000 C   0  0  0  0  0  0  0  0  0  0  0  0
   -3.9100   -1.5250    0.0000 O   0  0  0  0  0  0  0  0  0  0  0  0
   -4.4986    1.0055    0.0000 O   0  0  0  0  0  0  0  0  0  0  0  0
  2  1  1  1
  2  3  1  0
  3  4  1  0
  4  5  1  0
  5  6  2  0
  6  7  1  0
  7  8  1  0
  7  9  2  0
  9 10  1  0
  2 11  1  0
 11 12  2  0
 11 13  1  0
 10  4  2  0
M  END
>  <rName>  (2140) 
Ala_pyrid2yl_5F

>  <PQ_SYMBOL>  (2140) 
Ala_pyrid2yl_5F

>  <FULL_NAME>  (2140) 
(S)-2-amino-3-(5-fluoropyridin-2-yl)propanoic acid

>  <IUPAC_CONDENSED>  (2140) 
Ala(pyrid-2-yl(5-F))

>  <IUPAC>  (2140) 
(2S)-2-amino-3-(5-fluoropyridin-2-yl)propanoic acid

>  <TYPE>  (2140) 
Backbone

>  <CLASS>  (2140) 
alpha

>  <ANALOG>  (2140) 
Phe

>  <MOL_WT>  (2140) 
184.16999999999996

>  <LOGP>  (2140) 
0.17509999999999998

>  <TPSA>  (2140) 
76.21

>  <POPULARITY>  (2140) 
2.9

>  <PROTECTED>  (2140) 
TRUE

>  <SMILES>  (2140) 
N[C@@H](Cc1(ccc(F)cn1))C(=O)O

>  <INCHIKEY>  (2140) 
YZUVKRZLMIRVEE-ZETCQYMHSA-N

$$$$
bAla_3SBn_2CN
     RDKit          2D

 15 15  0  0  0  0  0  0  0  0999 V2000
   -1.5648    1.4565    0.0000 N   0  0  0  0  0  0  0  0  0  0  0  0
   -1.4725   -0.0406    0.0000 C   0  0  0  0  0  0  0  0  0  0  0  0
   -0.1298   -0.7093    0.0000 C   0  0  0  0  0  0  0  0  0  0  0  0
    1.1206    0.1192    0.0000 C   0  0  0  0  0  0  0  0  0  0  0  0
    1.0284    1.6163    0.0000 C   0  0  0  0  0  0  0  0  0  0  0  0
    2.2788    2.4448    0.0000 C   0  0  0  0  0  0  0  0  0  0  0  0
    3.6215    1.7761    0.0000 C   0  0  0  0  0  0  0  0  0  0  0  0
    3.7138    0.2790    0.0000 C   0  0  0  0  0  0  0  0  0  0  0  0
    2.4633   -0.5495    0.0000 C   0  0  0  0  0  0  0  0  0  0  0  0
    2.5556   -2.0467    0.0000 C   0  0  0  0  0  0  0  0  0  0  0  0
    2.6479   -3.5438    0.0000 N   0  0  0  0  0  0  0  0  0  0  0  0
   -2.7230   -0.8691    0.0000 C   0  0  0  0  0  0  0  0  0  0  0  0
   -4.0657   -0.2004    0.0000 C   0  0  0  0  0  0  0  0  0  0  0  0
   -4.1579    1.2967    0.0000 O   0  0  0  0  0  0  0  0  0  0  0  0
   -5.3161   -1.0289    0.0000 O   0  0  0  0  0  0  0  0  0  0  0  0
  2  1  1  1
  2  3  1  0
  3  4  1  0
  4  5  2  0
  5  6  1  0
  6  7  2  0
  7  8  1  0
  8  9  2  0
  9 10  1  0
 10 11  3  0
  2 12  1  0
 12 13  1  0
 13 14  2  0
 13 15  1  0
  9  4  1  0
M  END
>  <rName>  (2141) 
bAla_3SBn_2CN

>  <PQ_SYMBOL>  (2141) 
bAla_3SBn_2CN

>  <FULL_NAME>  (2141) 
(S)-3-amino-4-(2-cyanophenyl)butanoic acid

>  <IUPAC_CONDENSED>  (2141) 
bAla(3S-Bn(2-CN))

>  <IUPAC>  (2141) 
(3S)-3-amino-4-(2-(nitrilomethyl)phenyl)butanoic acid

>  <TYPE>  (2141) 
Backbone

>  <CLASS>  (2141) 
beta

>  <ANALOG>  (2141) 
Phe

>  <MOL_WT>  (2141) 
204.22899999999996

>  <LOGP>  (2141) 
0.9027800000000001

>  <TPSA>  (2141) 
87.11

>  <POPULARITY>  (2141) 
2.9

>  <PROTECTED>  (2141) 
TRUE

>  <SMILES>  (2141) 
N[C@@H](Cc1(ccccc1C#N))CC(=O)O

>  <INCHIKEY>  (2141) 
VAIQDFORVKLNPH-JTQLQIEISA-N

$$$$
Lys_DOTA
     RDKit          2D

 37 37  0  0  0  0  0  0  0  0999 V2000
   -9.8033    1.9016    0.0000 N   0  0  0  0  0  0  0  0  0  0  0  0
  -10.0171    0.4169    0.0000 C   0  0  0  0  0  0  0  0  0  0  0  0
   -8.8382   -0.5107    0.0000 C   0  0  0  0  0  0  0  0  0  0  0  0
   -7.4456    0.0465    0.0000 C   0  0  0  0  0  0  0  0  0  0  0  0
   -6.2667   -0.8810    0.0000 C   0  0  0  0  0  0  0  0  0  0  0  0
   -4.8740   -0.3239    0.0000 C   0  0  0  0  0  0  0  0  0  0  0  0
   -3.6952   -1.2514    0.0000 N   0  0  0  0  0  0  0  0  0  0  0  0
   -2.3025   -0.6942    0.0000 C   0  0  0  0  0  0  0  0  0  0  0  0
   -2.0886    0.7904    0.0000 O   0  0  0  0  0  0  0  0  0  0  0  0
   -1.1236   -1.6218    0.0000 C   0  0  0  0  0  0  0  0  0  0  0  0
    0.2691   -1.0646    0.0000 N   0  0  0  0  0  0  0  0  0  0  0  0
    0.0914    0.4248    0.0000 C   0  0  0  0  0  0  0  0  0  0  0  0
    0.6822    1.8036    0.0000 C   0  0  0  0  0  0  0  0  0  0  0  0
    1.8832    2.7022    0.0000 N   0  0  0  0  0  0  0  0  0  0  0  0
    1.3260    4.0949    0.0000 C   0  0  0  0  0  0  0  0  0  0  0  0
    2.2536    5.2737    0.0000 C   0  0  0  0  0  0  0  0  0  0  0  0
    3.7382    5.0599    0.0000 O   0  0  0  0  0  0  0  0  0  0  0  0
    1.6964    6.6664    0.0000 O   0  0  0  0  0  0  0  0  0  0  0  0
    3.3726    2.8799    0.0000 C   0  0  0  0  0  0  0  0  0  0  0  0
    4.7514    2.2891    0.0000 C   0  0  0  0  0  0  0  0  0  0  0  0
    5.6500    1.0881    0.0000 N   0  0  0  0  0  0  0  0  0  0  0  0
    7.0427    1.6452    0.0000 C   0  0  0  0  0  0  0  0  0  0  0  0
    8.2215    0.7177    0.0000 C   0  0  0  0  0  0  0  0  0  0  0  0
    8.0077   -0.7670    0.0000 O   0  0  0  0  0  0  0  0  0  0  0  0
    9.6142    1.2749    0.0000 O   0  0  0  0  0  0  0  0  0  0  0  0
    5.8277   -0.4014    0.0000 C   0  0  0  0  0  0  0  0  0  0  0  0
    5.2369   -1.7801    0.0000 C   0  0  0  0  0  0  0  0  0  0  0  0
    4.0359   -2.6787    0.0000 N   0  0  0  0  0  0  0  0  0  0  0  0
    4.5930   -4.0714    0.0000 C   0  0  0  0  0  0  0  0  0  0  0  0
    3.6655   -5.2503    0.0000 C   0  0  0  0  0  0  0  0  0  0  0  0
    2.1808   -5.0364    0.0000 O   0  0  0  0  0  0  0  0  0  0  0  0
    4.2227   -6.6430    0.0000 O   0  0  0  0  0  0  0  0  0  0  0  0
    2.5464   -2.8564    0.0000 C   0  0  0  0  0  0  0  0  0  0  0  0
    1.1677   -2.2656    0.0000 C   0  0  0  0  0  0  0  0  0  0  0  0
  -11.4098   -0.1403    0.0000 C   0  0  0  0  0  0  0  0  0  0  0  0
  -11.6236   -1.6250    0.0000 O   0  0  0  0  0  0  0  0  0  0  0  0
  -12.5886    0.7872    0.0000 O   0  0  0  0  0  0  0  0  0  0  0  0
  2  1  1  1
  2  3  1  0
  3  4  1  0
  4  5  1  0
  5  6  1  0
  6  7  1  0
  7  8  1  0
  8  9  2  0
  8 10  1  0
 10 11  1  0
 11 12  1  0
 12 13  1  0
 13 14  1  0
 14 15  1  0
 15 16  1  0
 16 17  2  0
 16 18  1  0
 14 19  1  0
 19 20  1  0
 20 21  1  0
 21 22  1  0
 22 23  1  0
 23 24  2  0
 23 25  1  0
 21 26  1  0
 26 27  1  0
 27 28  1  0
 28 29  1  0
 29 30  1  0
 30 31  2  0
 30 32  1  0
 28 33  1  0
 33 34  1  0
  2 35  1  0
 35 36  2  0
 35 37  1  0
 34 11  1  0
M  END
>  <rName>  (2142) 
Lys_DOTA

>  <PQ_SYMBOL>  (2142) 
Lys_DOTA

>  <FULL_NAME>  (2142) 
(S)-2,2',2''-(10-(2-((5-amino-5-carboxypentyl)amino)-2-oxoethyl)-1,4,7,10-tetraazacyclododecane-1,4,7-triyl)triacetic acid

>  <IUPAC_CONDENSED>  (2142) 
Lys(DOTA)

>  <IUPAC>  (2142) 
(2S)-2-amino-6-((4,7,10-tris(2-hydroxy-2-oxoethyl)-1,4,7,10-tetraazacyclododecan-1-yl)methylcarbonylamino)hexanoic acid

>  <TYPE>  (2142) 
Backbone

>  <CLASS>  (2142) 
alpha

>  <ANALOG>  (2142) 
X

>  <MOL_WT>  (2142) 
532.5950000000005

>  <LOGP>  (2142) 
-2.8397999999999923

>  <TPSA>  (2142) 
217.27999999999997

>  <POPULARITY>  (2142) 
3.3

>  <PROTECTED>  (2142) 
TRUE

>  <SMILES>  (2142) 
N[C@@H](CCCCNC(=O)CN1CCN(CC(=O)O)CCN(CC(=O)O)CCN(CC(=O)O)CC1)C(=O)O

>  <INCHIKEY>  (2142) 
JCEJITBDLXNFBI-KRWDZBQOSA-N

$$$$
D-Lys_DOTA
     RDKit          2D

 37 37  0  0  0  0  0  0  0  0999 V2000
   -9.8033    1.9016    0.0000 N   0  0  0  0  0  0  0  0  0  0  0  0
  -10.0171    0.4169    0.0000 C   0  0  0  0  0  0  0  0  0  0  0  0
   -8.8382   -0.5107    0.0000 C   0  0  0  0  0  0  0  0  0  0  0  0
   -7.4456    0.0465    0.0000 C   0  0  0  0  0  0  0  0  0  0  0  0
   -6.2667   -0.8810    0.0000 C   0  0  0  0  0  0  0  0  0  0  0  0
   -4.8740   -0.3239    0.0000 C   0  0  0  0  0  0  0  0  0  0  0  0
   -3.6952   -1.2514    0.0000 N   0  0  0  0  0  0  0  0  0  0  0  0
   -2.3025   -0.6942    0.0000 C   0  0  0  0  0  0  0  0  0  0  0  0
   -2.0886    0.7904    0.0000 O   0  0  0  0  0  0  0  0  0  0  0  0
   -1.1236   -1.6218    0.0000 C   0  0  0  0  0  0  0  0  0  0  0  0
    0.2691   -1.0646    0.0000 N   0  0  0  0  0  0  0  0  0  0  0  0
    0.0914    0.4248    0.0000 C   0  0  0  0  0  0  0  0  0  0  0  0
    0.6822    1.8036    0.0000 C   0  0  0  0  0  0  0  0  0  0  0  0
    1.8832    2.7022    0.0000 N   0  0  0  0  0  0  0  0  0  0  0  0
    1.3260    4.0949    0.0000 C   0  0  0  0  0  0  0  0  0  0  0  0
    2.2536    5.2737    0.0000 C   0  0  0  0  0  0  0  0  0  0  0  0
    3.7382    5.0599    0.0000 O   0  0  0  0  0  0  0  0  0  0  0  0
    1.6964    6.6664    0.0000 O   0  0  0  0  0  0  0  0  0  0  0  0
    3.3726    2.8799    0.0000 C   0  0  0  0  0  0  0  0  0  0  0  0
    4.7514    2.2891    0.0000 C   0  0  0  0  0  0  0  0  0  0  0  0
    5.6500    1.0881    0.0000 N   0  0  0  0  0  0  0  0  0  0  0  0
    7.0427    1.6452    0.0000 C   0  0  0  0  0  0  0  0  0  0  0  0
    8.2215    0.7177    0.0000 C   0  0  0  0  0  0  0  0  0  0  0  0
    8.0077   -0.7670    0.0000 O   0  0  0  0  0  0  0  0  0  0  0  0
    9.6142    1.2749    0.0000 O   0  0  0  0  0  0  0  0  0  0  0  0
    5.8277   -0.4014    0.0000 C   0  0  0  0  0  0  0  0  0  0  0  0
    5.2369   -1.7801    0.0000 C   0  0  0  0  0  0  0  0  0  0  0  0
    4.0359   -2.6787    0.0000 N   0  0  0  0  0  0  0  0  0  0  0  0
    4.5930   -4.0714    0.0000 C   0  0  0  0  0  0  0  0  0  0  0  0
    3.6655   -5.2503    0.0000 C   0  0  0  0  0  0  0  0  0  0  0  0
    2.1808   -5.0364    0.0000 O   0  0  0  0  0  0  0  0  0  0  0  0
    4.2227   -6.6430    0.0000 O   0  0  0  0  0  0  0  0  0  0  0  0
    2.5464   -2.8564    0.0000 C   0  0  0  0  0  0  0  0  0  0  0  0
    1.1677   -2.2656    0.0000 C   0  0  0  0  0  0  0  0  0  0  0  0
  -11.4098   -0.1403    0.0000 C   0  0  0  0  0  0  0  0  0  0  0  0
  -11.6236   -1.6250    0.0000 O   0  0  0  0  0  0  0  0  0  0  0  0
  -12.5886    0.7872    0.0000 O   0  0  0  0  0  0  0  0  0  0  0  0
  2  1  1  6
  2  3  1  0
  3  4  1  0
  4  5  1  0
  5  6  1  0
  6  7  1  0
  7  8  1  0
  8  9  2  0
  8 10  1  0
 10 11  1  0
 11 12  1  0
 12 13  1  0
 13 14  1  0
 14 15  1  0
 15 16  1  0
 16 17  2  0
 16 18  1  0
 14 19  1  0
 19 20  1  0
 20 21  1  0
 21 22  1  0
 22 23  1  0
 23 24  2  0
 23 25  1  0
 21 26  1  0
 26 27  1  0
 27 28  1  0
 28 29  1  0
 29 30  1  0
 30 31  2  0
 30 32  1  0
 28 33  1  0
 33 34  1  0
  2 35  1  0
 35 36  2  0
 35 37  1  0
 34 11  1  0
M  END
>  <rName>  (2143) 
D-Lys_DOTA

>  <PQ_SYMBOL>  (2143) 
D-Lys_DOTA

>  <FULL_NAME>  (2143) 
(R)-2,2',2''-(10-(2-((5-amino-5-carboxypentyl)amino)-2-oxoethyl)-1,4,7,10-tetraazacyclododecane-1,4,7-triyl)triacetic acid

>  <IUPAC_CONDENSED>  (2143) 
D-Lys(DOTA)

>  <IUPAC>  (2143) 
(2R)-2-amino-6-((4,7,10-tris(2-hydroxy-2-oxoethyl)-1,4,7,10-tetraazacyclododecan-1-yl)methylcarbonylamino)hexanoic acid

>  <TYPE>  (2143) 
Backbone

>  <CLASS>  (2143) 
alpha

>  <ANALOG>  (2143) 
X

>  <MOL_WT>  (2143) 
532.5950000000005

>  <LOGP>  (2143) 
-2.8397999999999923

>  <TPSA>  (2143) 
217.27999999999997

>  <POPULARITY>  (2143) 
3.3

>  <PROTECTED>  (2143) 
TRUE

>  <SMILES>  (2143) 
N[C@H](CCCCNC(=O)CN1CCN(CC(=O)O)CCN(CC(=O)O)CCN(CC(=O)O)CC1)C(=O)O

>  <INCHIKEY>  (2143) 
JCEJITBDLXNFBI-QGZVFWFLSA-N

$$$$
Phe_2CF3_4CN
     RDKit          2D

 18 18  0  0  0  0  0  0  0  0999 V2000
   -2.1681    2.3660    0.0000 N   0  0  0  0  0  0  0  0  0  0  0  0
   -2.5868    0.9257    0.0000 C   0  0  0  0  0  0  0  0  0  0  0  0
   -1.5488   -0.1572    0.0000 C   0  0  0  0  0  0  0  0  0  0  0  0
   -0.0921    0.2003    0.0000 C   0  0  0  0  0  0  0  0  0  0  0  0
    0.3267    1.6407    0.0000 C   0  0  0  0  0  0  0  0  0  0  0  0
    1.7835    1.9982    0.0000 C   0  0  0  0  0  0  0  0  0  0  0  0
    2.8215    0.9154    0.0000 C   0  0  0  0  0  0  0  0  0  0  0  0
    4.2782    1.2729    0.0000 C   0  0  0  0  0  0  0  0  0  0  0  0
    5.7350    1.6304    0.0000 N   0  0  0  0  0  0  0  0  0  0  0  0
    2.4027   -0.5250    0.0000 C   0  0  0  0  0  0  0  0  0  0  0  0
    0.9459   -0.8825    0.0000 C   0  0  0  0  0  0  0  0  0  0  0  0
    0.5272   -2.3229    0.0000 C   0  0  0  0  0  0  0  0  0  0  0  0
    0.1084   -3.7632    0.0000 F   0  0  0  0  0  0  0  0  0  0  0  0
    1.9675   -2.7416    0.0000 F   0  0  0  0  0  0  0  0  0  0  0  0
   -0.9132   -1.9041    0.0000 F   0  0  0  0  0  0  0  0  0  0  0  0
   -4.0436    0.5682    0.0000 C   0  0  0  0  0  0  0  0  0  0  0  0
   -4.4624   -0.8722    0.0000 O   0  0  0  0  0  0  0  0  0  0  0  0
   -5.0816    1.6510    0.0000 O   0  0  0  0  0  0  0  0  0  0  0  0
  2  1  1  1
  2  3  1  0
  3  4  1  0
  4  5  1  0
  5  6  2  0
  6  7  1  0
  7  8  1  0
  8  9  3  0
  7 10  2  0
 10 11  1  0
 11 12  1  0
 12 13  1  0
 12 14  1  0
 12 15  1  0
  2 16  1  0
 16 17  2  0
 16 18  1  0
 11  4  2  0
M  END
>  <rName>  (2144) 
Phe_2CF3_4CN

>  <PQ_SYMBOL>  (2144) 
Phe_2CF3_4CN

>  <FULL_NAME>  (2144) 
(S)-2-amino-3-(4-cyano-2-(trifluoromethyl)phenyl)propanoic acid

>  <IUPAC_CONDENSED>  (2144) 
Phe(2-CF3,4-CN)

>  <IUPAC>  (2144) 
(2S)-2-amino-3-(4-(nitrilomethyl)-2-(trifluoromethyl)phenyl)propanoic acid

>  <TYPE>  (2144) 
Backbone

>  <CLASS>  (2144) 
alpha

>  <ANALOG>  (2144) 
Phe

>  <MOL_WT>  (2144) 
258.19899999999996

>  <LOGP>  (2144) 
1.5314800000000002

>  <TPSA>  (2144) 
87.11

>  <POPULARITY>  (2144) 
2.2

>  <PROTECTED>  (2144) 
TRUE

>  <SMILES>  (2144) 
N[C@@H](Cc1(ccc(C#N)cc1C(F)(F)F))C(=O)O

>  <INCHIKEY>  (2144) 
AWEOHTMMHAYRST-VIFPVBQESA-N

$$$$
4-aza-Ac6c_Bn_3Cl
     RDKit          2D

 18 19  0  0  0  0  0  0  0  0999 V2000
   -4.5235    0.8620    0.0000 N   0  0  0  0  0  0  0  0  0  0  0  0
   -3.1444    0.2719    0.0000 C   0  0  0  0  0  0  0  0  0  0  0  0
   -2.8028    1.7325    0.0000 C   0  0  0  0  0  0  0  0  0  0  0  0
   -1.3671    2.1670    0.0000 C   0  0  0  0  0  0  0  0  0  0  0  0
   -0.2730    1.1409    0.0000 N   0  0  0  0  0  0  0  0  0  0  0  0
   -0.6146   -0.3197    0.0000 C   0  0  0  0  0  0  0  0  0  0  0  0
   -2.0503   -0.7542    0.0000 C   0  0  0  0  0  0  0  0  0  0  0  0
    1.1627    1.5754    0.0000 C   0  0  0  0  0  0  0  0  0  0  0  0
    2.2568    0.5493    0.0000 C   0  0  0  0  0  0  0  0  0  0  0  0
    1.9153   -0.9113    0.0000 C   0  0  0  0  0  0  0  0  0  0  0  0
    3.0094   -1.9374    0.0000 C   0  0  0  0  0  0  0  0  0  0  0  0
    4.4451   -1.5030    0.0000 C   0  0  0  0  0  0  0  0  0  0  0  0
    4.7867   -0.0424    0.0000 C   0  0  0  0  0  0  0  0  0  0  0  0
    6.2223    0.3921    0.0000 Cl  0  0  0  0  0  0  0  0  0  0  0  0
    3.6925    0.9837    0.0000 C   0  0  0  0  0  0  0  0  0  0  0  0
   -3.9649   -0.9837    0.0000 C   0  0  0  0  0  0  0  0  0  0  0  0
   -3.2877   -2.3222    0.0000 O   0  0  0  0  0  0  0  0  0  0  0  0
   -5.4626   -0.9010    0.0000 O   0  0  0  0  0  0  0  0  0  0  0  0
  1  2  1  0
  2  3  1  0
  3  4  1  0
  4  5  1  0
  5  6  1  0
  6  7  1  0
  5  8  1  0
  8  9  1  0
  9 10  2  0
 10 11  1  0
 11 12  2  0
 12 13  1  0
 13 14  1  0
 13 15  2  0
  2 16  1  0
 16 17  2  0
 16 18  1  0
  7  2  1  0
 15  9  1  0
M  END
>  <rName>  (2145) 
4-aza-Ac6c_Bn_3Cl

>  <PQ_SYMBOL>  (2145) 
4-aza-Ac6c_Bn_3Cl

>  <FULL_NAME>  (2145) 
4-amino-1-(3-chlorobenzyl)piperidine-4-carboxylic acid

>  <IUPAC_CONDENSED>  (2145) 
4-aza-Ac6c(Bn(3-Cl))

>  <IUPAC>  (2145) 
4-amino-1-((3-chlorophenyl)methyl)piperidine-4-carboxylic acid

>  <TYPE>  (2145) 
Backbone

>  <CLASS>  (2145) 
alpha

>  <ANALOG>  (2145) 
X

>  <MOL_WT>  (2145) 
268.744

>  <LOGP>  (2145) 
1.7178999999999998

>  <TPSA>  (2145) 
66.56

>  <POPULARITY>  (2145) 
5.1

>  <PROTECTED>  (2145) 
TRUE

>  <SMILES>  (2145) 
NC1(CCN(CC1)Cc2(cccc(Cl)c2))C(=O)O

>  <INCHIKEY>  (2145) 
UADRFWIPKAMILQ-UHFFFAOYSA-N

$$$$
3Pal_2Me_6OH
     RDKit          2D

 14 14  0  0  0  0  0  0  0  0999 V2000
   -1.7174    1.8436    0.0000 N   0  0  0  0  0  0  0  0  0  0  0  0
   -2.1036    0.3942    0.0000 C   0  0  0  0  0  0  0  0  0  0  0  0
   -1.0414   -0.6650    0.0000 C   0  0  0  0  0  0  0  0  0  0  0  0
    0.4069   -0.2747    0.0000 C   0  0  0  0  0  0  0  0  0  0  0  0
    0.7931    1.1747    0.0000 C   0  0  0  0  0  0  0  0  0  0  0  0
    2.2415    1.5649    0.0000 C   0  0  0  0  0  0  0  0  0  0  0  0
    3.3036    0.5057    0.0000 C   0  0  0  0  0  0  0  0  0  0  0  0
    4.7520    0.8960    0.0000 O   0  0  0  0  0  0  0  0  0  0  0  0
    2.9174   -0.9437    0.0000 N   0  0  0  0  0  0  0  0  0  0  0  0
    1.4691   -1.3339    0.0000 C   0  0  0  0  0  0  0  0  0  0  0  0
    1.0829   -2.7834    0.0000 C   0  0  0  0  0  0  0  0  0  0  0  0
   -3.5519    0.0039    0.0000 C   0  0  0  0  0  0  0  0  0  0  0  0
   -3.9381   -1.4455    0.0000 O   0  0  0  0  0  0  0  0  0  0  0  0
   -4.6140    1.0631    0.0000 O   0  0  0  0  0  0  0  0  0  0  0  0
  2  1  1  1
  2  3  1  0
  3  4  1  0
  4  5  1  0
  5  6  2  0
  6  7  1  0
  7  8  1  0
  7  9  2  0
  9 10  1  0
 10 11  1  0
  2 12  1  0
 12 13  2  0
 12 14  1  0
 10  4  2  0
M  END
>  <rName>  (2146) 
3Pal_2Me_6OH

>  <PQ_SYMBOL>  (2146) 
3Pal_2Me_6OH

>  <FULL_NAME>  (2146) 
(S)-2-amino-3-(6-hydroxy-2-methylpyridin-3-yl)propanoic acid

>  <IUPAC_CONDENSED>  (2146) 
3Pal(2-Me,6-OH)

>  <IUPAC>  (2146) 
(2S)-2-amino-3-(6-hydroxy-2-methylpyridin-3-yl)propanoic acid

>  <TYPE>  (2146) 
Backbone

>  <CLASS>  (2146) 
alpha

>  <ANALOG>  (2146) 
Phe

>  <MOL_WT>  (2146) 
196.20599999999996

>  <LOGP>  (2146) 
0.0500199999999999

>  <TPSA>  (2146) 
96.44000000000001

>  <POPULARITY>  (2146) 
2.4

>  <PROTECTED>  (2146) 
TRUE

>  <SMILES>  (2146) 
N[C@@H](Cc1(ccc(O)nc1C))C(=O)O

>  <INCHIKEY>  (2146) 
CMDYBSHHTRYQFQ-ZETCQYMHSA-N

$$$$
1Nal_CO2H
     RDKit          2D

 19 20  0  0  0  0  0  0  0  0999 V2000
   -2.7157    2.1091    0.0000 N   0  0  0  0  0  0  0  0  0  0  0  0
   -2.5902    0.6144    0.0000 C   0  0  0  0  0  0  0  0  0  0  0  0
   -1.2330   -0.0243    0.0000 C   0  0  0  0  0  0  0  0  0  0  0  0
   -0.0012    0.8318    0.0000 C   0  0  0  0  0  0  0  0  0  0  0  0
   -0.1267    2.3265    0.0000 C   0  0  0  0  0  0  0  0  0  0  0  0
    1.1050    3.1826    0.0000 C   0  0  0  0  0  0  0  0  0  0  0  0
    2.4622    2.5439    0.0000 C   0  0  0  0  0  0  0  0  0  0  0  0
    2.5877    1.0491    0.0000 C   0  0  0  0  0  0  0  0  0  0  0  0
    3.9450    0.4105    0.0000 C   0  0  0  0  0  0  0  0  0  0  0  0
    4.0705   -1.0843    0.0000 C   0  0  0  0  0  0  0  0  0  0  0  0
    2.8388   -1.9403    0.0000 C   0  0  0  0  0  0  0  0  0  0  0  0
    1.4815   -1.3017    0.0000 C   0  0  0  0  0  0  0  0  0  0  0  0
    0.2498   -2.1577    0.0000 C   0  0  0  0  0  0  0  0  0  0  0  0
   -1.1075   -1.5190    0.0000 O   0  0  0  0  0  0  0  0  0  0  0  0
    0.3753   -3.6525    0.0000 O   0  0  0  0  0  0  0  0  0  0  0  0
    1.3560    0.1931    0.0000 C   0  0  0  0  0  0  0  0  0  0  0  0
   -3.8219   -0.2417    0.0000 C   0  0  0  0  0  0  0  0  0  0  0  0
   -3.6964   -1.7364    0.0000 O   0  0  0  0  0  0  0  0  0  0  0  0
   -5.1792    0.3970    0.0000 O   0  0  0  0  0  0  0  0  0  0  0  0
  2  1  1  1
  2  3  1  0
  3  4  1  0
  4  5  1  0
  5  6  2  0
  6  7  1  0
  7  8  2  0
  8  9  1  0
  9 10  2  0
 10 11  1  0
 11 12  2  0
 12 13  1  0
 13 14  2  0
 13 15  1  0
 12 16  1  0
  2 17  1  0
 17 18  2  0
 17 19  1  0
 16  8  1  0
 16  4  2  0
M  END
>  <rName>  (2147) 
1Nal_CO2H

>  <PQ_SYMBOL>  (2147) 
1Nal_CO2H

>  <FULL_NAME>  (2147) 
(S)-8-(2-amino-2-carboxyethyl)-1-naphthoic acid

>  <IUPAC_CONDENSED>  (2147) 
1Nal(CO2H)

>  <IUPAC>  (2147) 
8-((2S)-2-amino-3-hydroxy-3-oxopropyl)naphthalene-1-carboxylic acid

>  <TYPE>  (2147) 
Backbone

>  <CLASS>  (2147) 
alpha

>  <ANALOG>  (2147) 
Phe

>  <MOL_WT>  (2147) 
259.26099999999997

>  <LOGP>  (2147) 
1.4924000000000002

>  <TPSA>  (2147) 
100.62000000000002

>  <POPULARITY>  (2147) 
2.3

>  <PROTECTED>  (2147) 
TRUE

>  <SMILES>  (2147) 
N[C@@H](Cc2(cccc1(cccc(C(=O)O)c12)))C(=O)O

>  <INCHIKEY>  (2147) 
IKQCFELVDACWEC-NSHDSACASA-N

$$$$
Phe_4cHex_4SPr
     RDKit          2D

 21 22  0  0  0  0  0  0  0  0999 V2000
   -4.5161    1.7003    0.0000 N   0  0  0  0  0  0  0  0  0  0  0  0
   -5.0653    0.3044    0.0000 C   0  0  0  0  0  0  0  0  0  0  0  0
   -4.1311   -0.8691    0.0000 C   0  0  0  0  0  0  0  0  0  0  0  0
   -2.6477   -0.6469    0.0000 C   0  0  0  0  0  0  0  0  0  0  0  0
   -2.0984    0.7489    0.0000 C   0  0  0  0  0  0  0  0  0  0  0  0
   -0.6150    0.9712    0.0000 C   0  0  0  0  0  0  0  0  0  0  0  0
    0.3192   -0.2024    0.0000 C   0  0  0  0  0  0  0  0  0  0  0  0
   -0.2300   -1.5982    0.0000 C   0  0  0  0  0  0  0  0  0  0  0  0
   -1.7135   -1.8205    0.0000 C   0  0  0  0  0  0  0  0  0  0  0  0
    1.8027    0.0199    0.0000 C   0  0  0  0  0  0  0  0  0  0  0  0
    2.7369   -1.1537    0.0000 C   0  0  0  0  0  0  0  0  0  0  0  0
    4.2203   -0.9314    0.0000 C   0  0  0  0  0  0  0  0  0  0  0  0
    4.7696    0.4644    0.0000 C   0  0  0  0  0  0  0  0  0  0  0  0
    6.2530    0.6867    0.0000 C   0  0  0  0  0  0  0  0  0  0  0  0
    7.1872   -0.4869    0.0000 C   0  0  0  0  0  0  0  0  0  0  0  0
    8.6706   -0.2646    0.0000 C   0  0  0  0  0  0  0  0  0  0  0  0
    3.8353    1.6380    0.0000 C   0  0  0  0  0  0  0  0  0  0  0  0
    2.3519    1.4157    0.0000 C   0  0  0  0  0  0  0  0  0  0  0  0
   -6.5487    0.0822    0.0000 C   0  0  0  0  0  0  0  0  0  0  0  0
   -7.0980   -1.3137    0.0000 O   0  0  0  0  0  0  0  0  0  0  0  0
   -7.4830    1.2557    0.0000 O   0  0  0  0  0  0  0  0  0  0  0  0
  2  1  1  1
  2  3  1  0
  3  4  1  0
  4  5  1  0
  5  6  2  0
  6  7  1  0
  7  8  2  0
  8  9  1  0
 10  7  1  1
 10 11  1  0
 11 12  1  0
 12 13  1  0
 13 14  1  6
 14 15  1  0
 15 16  1  0
 13 17  1  0
 17 18  1  0
  2 19  1  0
 19 20  2  0
 19 21  1  0
  9  4  2  0
 18 10  1  0
M  END
>  <rName>  (2148) 
Phe_4cHex_4SPr

>  <PQ_SYMBOL>  (2148) 
Phe_4cHex_4SPr

>  <FULL_NAME>  (2148) 
(S)-2-amino-3-(4-((1s,4S)-4-propylcyclohexyl)phenyl)propanoic acid

>  <IUPAC_CONDENSED>  (2148) 
Phe(4-cHex(4S-Pr))

>  <IUPAC>  (2148) 
(2S)-2-amino-3-(4-(trans-4-propylcyclohexyl)phenyl)propanoic acid

>  <TYPE>  (2148) 
Backbone

>  <CLASS>  (2148) 
alpha

>  <ANALOG>  (2148) 
Phe

>  <MOL_WT>  (2148) 
289.4189999999999

>  <LOGP>  (2148) 
3.7149000000000028

>  <TPSA>  (2148) 
63.32000000000001

>  <POPULARITY>  (2148) 
2.5

>  <PROTECTED>  (2148) 
TRUE

>  <SMILES>  (2148) 
N[C@@H](Cc1(ccc(cc1)[C@@H]2(CC[C@@H](CCC)CC2)))C(=O)O

>  <INCHIKEY>  (2148) 
CIAOKTKTHOSCHU-QRTARXTBSA-N

$$$$
Phe_2CO2H_4Me
     RDKit          2D

 16 16  0  0  0  0  0  0  0  0999 V2000
   -2.0264    2.1084    0.0000 N   0  0  0  0  0  0  0  0  0  0  0  0
   -2.2807    0.6301    0.0000 C   0  0  0  0  0  0  0  0  0  0  0  0
   -1.1276   -0.3292    0.0000 C   0  0  0  0  0  0  0  0  0  0  0  0
    0.2798    0.1897    0.0000 C   0  0  0  0  0  0  0  0  0  0  0  0
    0.5340    1.6680    0.0000 C   0  0  0  0  0  0  0  0  0  0  0  0
    1.9414    2.1869    0.0000 C   0  0  0  0  0  0  0  0  0  0  0  0
    3.0945    1.2276    0.0000 C   0  0  0  0  0  0  0  0  0  0  0  0
    4.5019    1.7465    0.0000 C   0  0  0  0  0  0  0  0  0  0  0  0
    2.8403   -0.2507    0.0000 C   0  0  0  0  0  0  0  0  0  0  0  0
    1.4329   -0.7697    0.0000 C   0  0  0  0  0  0  0  0  0  0  0  0
    1.1786   -2.2479    0.0000 C   0  0  0  0  0  0  0  0  0  0  0  0
   -0.2288   -2.7669    0.0000 O   0  0  0  0  0  0  0  0  0  0  0  0
    2.3317   -3.2073    0.0000 O   0  0  0  0  0  0  0  0  0  0  0  0
   -3.6881    0.1112    0.0000 C   0  0  0  0  0  0  0  0  0  0  0  0
   -3.9423   -1.3671    0.0000 O   0  0  0  0  0  0  0  0  0  0  0  0
   -4.8412    1.0705    0.0000 O   0  0  0  0  0  0  0  0  0  0  0  0
  2  1  1  1
  2  3  1  0
  3  4  1  0
  4  5  1  0
  5  6  2  0
  6  7  1  0
  7  8  1  0
  7  9  2  0
  9 10  1  0
 10 11  1  0
 11 12  2  0
 11 13  1  0
  2 14  1  0
 14 15  2  0
 14 16  1  0
 10  4  2  0
M  END
>  <rName>  (2149) 
Phe_2CO2H_4Me

>  <PQ_SYMBOL>  (2149) 
Phe_2CO2H_4Me

>  <FULL_NAME>  (2149) 
(S)-2-(2-amino-2-carboxyethyl)-5-methylbenzoic acid

>  <IUPAC_CONDENSED>  (2149) 
Phe(2-CO2H,4-Me)

>  <IUPAC>  (2149) 
2-((2S)-2-amino-3-hydroxy-3-oxopropyl)-5-methylbenzene-1-carboxylic acid

>  <TYPE>  (2149) 
Backbone

>  <CLASS>  (2149) 
alpha

>  <ANALOG>  (2149) 
Phe

>  <MOL_WT>  (2149) 
223.22799999999995

>  <LOGP>  (2149) 
0.64762

>  <TPSA>  (2149) 
100.62000000000002

>  <POPULARITY>  (2149) 
2.7

>  <PROTECTED>  (2149) 
TRUE

>  <SMILES>  (2149) 
N[C@@H](Cc1(ccc(C)cc1C(=O)O))C(=O)O

>  <INCHIKEY>  (2149) 
VWSSPQJVPUDNCJ-VIFPVBQESA-N

$$$$
3Pal_2F_6F
     RDKit          2D

 14 14  0  0  0  0  0  0  0  0999 V2000
   -1.7174    1.8436    0.0000 N   0  0  0  0  0  0  0  0  0  0  0  0
   -2.1036    0.3942    0.0000 C   0  0  0  0  0  0  0  0  0  0  0  0
   -1.0414   -0.6650    0.0000 C   0  0  0  0  0  0  0  0  0  0  0  0
    0.4069   -0.2747    0.0000 C   0  0  0  0  0  0  0  0  0  0  0  0
    0.7931    1.1747    0.0000 C   0  0  0  0  0  0  0  0  0  0  0  0
    2.2415    1.5649    0.0000 C   0  0  0  0  0  0  0  0  0  0  0  0
    3.3036    0.5057    0.0000 C   0  0  0  0  0  0  0  0  0  0  0  0
    4.7520    0.8960    0.0000 F   0  0  0  0  0  0  0  0  0  0  0  0
    2.9174   -0.9437    0.0000 N   0  0  0  0  0  0  0  0  0  0  0  0
    1.4691   -1.3339    0.0000 C   0  0  0  0  0  0  0  0  0  0  0  0
    1.0829   -2.7834    0.0000 F   0  0  0  0  0  0  0  0  0  0  0  0
   -3.5519    0.0039    0.0000 C   0  0  0  0  0  0  0  0  0  0  0  0
   -3.9381   -1.4455    0.0000 O   0  0  0  0  0  0  0  0  0  0  0  0
   -4.6140    1.0631    0.0000 O   0  0  0  0  0  0  0  0  0  0  0  0
  2  1  1  1
  2  3  1  0
  3  4  1  0
  4  5  1  0
  5  6  2  0
  6  7  1  0
  7  8  1  0
  7  9  2  0
  9 10  1  0
 10 11  1  0
  2 12  1  0
 12 13  2  0
 12 14  1  0
 10  4  2  0
M  END
>  <rName>  (2150) 
3Pal_2F_6F

>  <PQ_SYMBOL>  (2150) 
3Pal_2F_6F

>  <FULL_NAME>  (2150) 
(S)-2-amino-3-(2,6-difluoropyridin-3-yl)propanoic acid

>  <IUPAC_CONDENSED>  (2150) 
3Pal(2-F,6-F)

>  <IUPAC>  (2150) 
(2S)-2-amino-3-(2,6-difluoropyridin-3-yl)propanoic acid

>  <TYPE>  (2150) 
Backbone

>  <CLASS>  (2150) 
alpha

>  <ANALOG>  (2150) 
Phe

>  <MOL_WT>  (2150) 
202.15999999999997

>  <LOGP>  (2150) 
0.3142000000000002

>  <TPSA>  (2150) 
76.21

>  <POPULARITY>  (2150) 
2.6

>  <PROTECTED>  (2150) 
TRUE

>  <SMILES>  (2150) 
N[C@@H](Cc1(ccc(F)nc1F))C(=O)O

>  <INCHIKEY>  (2150) 
TZTBYBDFDRGXOJ-YFKPBYRVSA-N

$$$$
Phe_2F_5For
     RDKit          2D

 15 15  0  0  0  0  0  0  0  0999 V2000
   -1.4698    1.8520    0.0000 N   0  0  0  0  0  0  0  0  0  0  0  0
   -2.1710    0.5260    0.0000 C   0  0  0  0  0  0  0  0  0  0  0  0
   -1.3733   -0.7443    0.0000 C   0  0  0  0  0  0  0  0  0  0  0  0
    0.1257   -0.6886    0.0000 C   0  0  0  0  0  0  0  0  0  0  0  0
    0.8269    0.6374    0.0000 C   0  0  0  0  0  0  0  0  0  0  0  0
    2.3259    0.6931    0.0000 C   0  0  0  0  0  0  0  0  0  0  0  0
    3.0271    2.0191    0.0000 C   0  0  0  0  0  0  0  0  0  0  0  0
    4.5261    2.0748    0.0000 O   0  0  0  0  0  0  0  0  0  0  0  0
    3.1236   -0.5772    0.0000 C   0  0  0  0  0  0  0  0  0  0  0  0
    2.4223   -1.9032    0.0000 C   0  0  0  0  0  0  0  0  0  0  0  0
    0.9234   -1.9589    0.0000 C   0  0  0  0  0  0  0  0  0  0  0  0
    0.2221   -3.2849    0.0000 F   0  0  0  0  0  0  0  0  0  0  0  0
   -3.6700    0.4703    0.0000 C   0  0  0  0  0  0  0  0  0  0  0  0
   -4.3712   -0.8557    0.0000 O   0  0  0  0  0  0  0  0  0  0  0  0
   -4.4677    1.7405    0.0000 O   0  0  0  0  0  0  0  0  0  0  0  0
  2  1  1  1
  2  3  1  0
  3  4  1  0
  4  5  1  0
  5  6  2  0
  6  7  1  0
  7  8  2  0
  6  9  1  0
  9 10  2  0
 10 11  1  0
 11 12  1  0
  2 13  1  0
 13 14  2  0
 13 15  1  0
 11  4  2  0
M  END
>  <rName>  (2151) 
Phe_2F_5For

>  <PQ_SYMBOL>  (2151) 
Phe_2F_5For

>  <FULL_NAME>  (2151) 
(S)-2-amino-3-(2-fluoro-5-formylphenyl)propanoic acid

>  <IUPAC_CONDENSED>  (2151) 
Phe(2-F,5-For)

>  <IUPAC>  (2151) 
(2S)-2-amino-3-(2-fluoro-5-(formyl)phenyl)propanoic acid

>  <TYPE>  (2151) 
Backbone

>  <CLASS>  (2151) 
alpha

>  <ANALOG>  (2151) 
Phe

>  <MOL_WT>  (2151) 
211.19199999999995

>  <LOGP>  (2151) 
0.5926000000000002

>  <TPSA>  (2151) 
80.39

>  <POPULARITY>  (2151) 
2.8

>  <PROTECTED>  (2151) 
TRUE

>  <SMILES>  (2151) 
N[C@@H](Cc1(cc(C=O)ccc1F))C(=O)O

>  <INCHIKEY>  (2151) 
WBDCEWJZNXPJES-VIFPVBQESA-N

$$$$
Phe_3CHF2
     RDKit          2D

 15 15  0  0  0  0  0  0  0  0999 V2000
   -2.6461    1.6149    0.0000 N   0  0  0  0  0  0  0  0  0  0  0  0
   -2.6827    0.1154    0.0000 C   0  0  0  0  0  0  0  0  0  0  0  0
   -1.4023   -0.6660    0.0000 C   0  0  0  0  0  0  0  0  0  0  0  0
   -0.0854    0.0521    0.0000 C   0  0  0  0  0  0  0  0  0  0  0  0
   -0.0488    1.5516    0.0000 C   0  0  0  0  0  0  0  0  0  0  0  0
    1.2681    2.2698    0.0000 C   0  0  0  0  0  0  0  0  0  0  0  0
    2.5485    1.4884    0.0000 C   0  0  0  0  0  0  0  0  0  0  0  0
    2.5119   -0.0112    0.0000 C   0  0  0  0  0  0  0  0  0  0  0  0
    1.1950   -0.7293    0.0000 C   0  0  0  0  0  0  0  0  0  0  0  0
    3.7923   -0.7926    0.0000 C   0  0  0  0  0  0  0  0  0  0  0  0
    3.7558   -2.2922    0.0000 F   0  0  0  0  0  0  0  0  0  0  0  0
    5.1093   -0.0745    0.0000 F   0  0  0  0  0  0  0  0  0  0  0  0
   -3.9996   -0.6028    0.0000 C   0  0  0  0  0  0  0  0  0  0  0  0
   -4.0361   -2.1023    0.0000 O   0  0  0  0  0  0  0  0  0  0  0  0
   -5.2800    0.1787    0.0000 O   0  0  0  0  0  0  0  0  0  0  0  0
  2  1  1  1
  2  3  1  0
  3  4  1  0
  4  5  1  0
  5  6  2  0
  6  7  1  0
  7  8  2  0
  8  9  1  0
  8 10  1  0
 10 11  1  0
 10 12  1  0
  2 13  1  0
 13 14  2  0
 13 15  1  0
  9  4  2  0
M  END
>  <rName>  (2152) 
Phe_3CHF2

>  <PQ_SYMBOL>  (2152) 
Phe_3CHF2

>  <FULL_NAME>  (2152) 
(S)-2-amino-3-(3-(difluoromethyl)phenyl)propanoic acid

>  <IUPAC_CONDENSED>  (2152) 
Phe(3-CHF2)

>  <IUPAC>  (2152) 
(2S)-2-amino-3-(3-(difluoromethyl)phenyl)propanoic acid

>  <TYPE>  (2152) 
Backbone

>  <CLASS>  (2152) 
alpha

>  <ANALOG>  (2152) 
Phe

>  <MOL_WT>  (2152) 
215.19899999999996

>  <LOGP>  (2152) 
1.5786000000000002

>  <TPSA>  (2152) 
63.32000000000001

>  <POPULARITY>  (2152) 
5.6

>  <PROTECTED>  (2152) 
TRUE

>  <SMILES>  (2152) 
N[C@@H](Cc1(cccc(c1)C(F)F))C(=O)O

>  <INCHIKEY>  (2152) 
GDFSRZQVLSUWKV-QMMMGPOBSA-N

$$$$
3Pal_5Me_6NH2
     RDKit          2D

 14 14  0  0  0  0  0  0  0  0999 V2000
   -2.0094    1.6916    0.0000 N   0  0  0  0  0  0  0  0  0  0  0  0
   -2.3243    0.2250    0.0000 C   0  0  0  0  0  0  0  0  0  0  0  0
   -1.2116   -0.7809    0.0000 C   0  0  0  0  0  0  0  0  0  0  0  0
    0.2159   -0.3203    0.0000 C   0  0  0  0  0  0  0  0  0  0  0  0
    0.5308    1.1463    0.0000 C   0  0  0  0  0  0  0  0  0  0  0  0
    1.9583    1.6069    0.0000 N   0  0  0  0  0  0  0  0  0  0  0  0
    3.0710    0.6009    0.0000 C   0  0  0  0  0  0  0  0  0  0  0  0
    4.4985    1.0615    0.0000 N   0  0  0  0  0  0  0  0  0  0  0  0
    2.7561   -0.8657    0.0000 C   0  0  0  0  0  0  0  0  0  0  0  0
    3.8688   -1.8716    0.0000 C   0  0  0  0  0  0  0  0  0  0  0  0
    1.3286   -1.3263    0.0000 C   0  0  0  0  0  0  0  0  0  0  0  0
   -3.7518   -0.2356    0.0000 C   0  0  0  0  0  0  0  0  0  0  0  0
   -4.0666   -1.7022    0.0000 O   0  0  0  0  0  0  0  0  0  0  0  0
   -4.8644    0.7704    0.0000 O   0  0  0  0  0  0  0  0  0  0  0  0
  2  1  1  1
  2  3  1  0
  3  4  1  0
  4  5  1  0
  5  6  2  0
  6  7  1  0
  7  8  1  0
  7  9  2  0
  9 10  1  0
  9 11  1  0
  2 12  1  0
 12 13  2  0
 12 14  1  0
 11  4  2  0
M  END
>  <rName>  (2153) 
3Pal_5Me_6NH2

>  <PQ_SYMBOL>  (2153) 
3Pal_5Me_6NH2

>  <FULL_NAME>  (2153) 
(S)-2-amino-3-(6-amino-5-methylpyridin-3-yl)propanoic acid

>  <IUPAC_CONDENSED>  (2153) 
3Pal(5-Me,6-NH2)

>  <IUPAC>  (2153) 
(2S)-2-amino-3-(6-amino-5-methylpyridin-3-yl)propanoic acid

>  <TYPE>  (2153) 
Backbone

>  <CLASS>  (2153) 
alpha

>  <ANALOG>  (2153) 
Phe

>  <MOL_WT>  (2153) 
195.222

>  <LOGP>  (2153) 
-0.07338000000000028

>  <TPSA>  (2153) 
102.23

>  <POPULARITY>  (2153) 
2.9

>  <PROTECTED>  (2153) 
TRUE

>  <SMILES>  (2153) 
N[C@@H](Cc1(cnc(N)c(C)c1))C(=O)O

>  <INCHIKEY>  (2153) 
QZEPXHAQCZUJSV-ZETCQYMHSA-N

$$$$
Phg_3Cl
     RDKit          2D

 12 12  0  0  0  0  0  0  0  0999 V2000
   -1.5885   -2.1920    0.0000 N   0  0  0  0  0  0  0  0  0  0  0  0
   -1.3991   -0.7040    0.0000 C   0  0  0  0  0  0  0  0  0  0  0  0
   -0.0158   -0.1240    0.0000 C   0  0  0  0  0  0  0  0  0  0  0  0
    0.1736    1.3640    0.0000 C   0  0  0  0  0  0  0  0  0  0  0  0
    1.5569    1.9440    0.0000 C   0  0  0  0  0  0  0  0  0  0  0  0
    2.7509    1.0360    0.0000 C   0  0  0  0  0  0  0  0  0  0  0  0
    2.5615   -0.4520    0.0000 C   0  0  0  0  0  0  0  0  0  0  0  0
    3.7555   -1.3600    0.0000 Cl  0  0  0  0  0  0  0  0  0  0  0  0
    1.1782   -1.0320    0.0000 C   0  0  0  0  0  0  0  0  0  0  0  0
   -2.5931    0.2040    0.0000 C   0  0  0  0  0  0  0  0  0  0  0  0
   -2.4037    1.6920    0.0000 O   0  0  0  0  0  0  0  0  0  0  0  0
   -3.9764   -0.3760    0.0000 O   0  0  0  0  0  0  0  0  0  0  0  0
  2  1  1  6
  2  3  1  0
  3  4  2  0
  4  5  1  0
  5  6  2  0
  6  7  1  0
  7  8  1  0
  7  9  2  0
  2 10  1  0
 10 11  2  0
 10 12  1  0
  9  3  1  0
M  END
>  <rName>  (2154) 
Phg_3Cl

>  <PQ_SYMBOL>  (2154) 
Phg_3Cl

>  <FULL_NAME>  (2154) 
(S)-2-amino-2-(3-chlorophenyl)acetic acid

>  <IUPAC_CONDENSED>  (2154) 
Phg(3-Cl)

>  <IUPAC>  (2154) 
(2S)-2-amino-2-(3-chlorophenyl)acetic acid

>  <TYPE>  (2154) 
Backbone

>  <CLASS>  (2154) 
alpha

>  <ANALOG>  (2154) 
X

>  <MOL_WT>  (2154) 
185.60999999999999

>  <LOGP>  (2154) 
1.4244

>  <TPSA>  (2154) 
63.32000000000001

>  <POPULARITY>  (2154) 
9.5

>  <PROTECTED>  (2154) 
TRUE

>  <SMILES>  (2154) 
N[C@@H](c1(cccc(Cl)c1))C(=O)O

>  <INCHIKEY>  (2154) 
MGOUENCSVMAGSE-ZETCQYMHSA-N

$$$$
Ala_pyrimid4yl_2SMe
     RDKit          2D

 14 14  0  0  0  0  0  0  0  0999 V2000
   -2.2742    1.6194    0.0000 N   0  0  0  0  0  0  0  0  0  0  0  0
   -2.3172    0.1200    0.0000 C   0  0  0  0  0  0  0  0  0  0  0  0
   -1.0402   -0.6669    0.0000 C   0  0  0  0  0  0  0  0  0  0  0  0
    0.2798    0.0456    0.0000 C   0  0  0  0  0  0  0  0  0  0  0  0
    0.3228    1.5450    0.0000 C   0  0  0  0  0  0  0  0  0  0  0  0
    1.6428    2.2574    0.0000 C   0  0  0  0  0  0  0  0  0  0  0  0
    2.9198    1.4705    0.0000 N   0  0  0  0  0  0  0  0  0  0  0  0
    2.8768   -0.0289    0.0000 C   0  0  0  0  0  0  0  0  0  0  0  0
    1.5568   -0.7414    0.0000 N   0  0  0  0  0  0  0  0  0  0  0  0
    4.1538   -0.8158    0.0000 S   0  0  0  0  0  0  0  0  0  0  0  0
    4.1108   -2.3152    0.0000 C   0  0  0  0  0  0  0  0  0  0  0  0
   -3.6372   -0.5924    0.0000 C   0  0  0  0  0  0  0  0  0  0  0  0
   -3.6802   -2.0918    0.0000 O   0  0  0  0  0  0  0  0  0  0  0  0
   -4.9142    0.1945    0.0000 O   0  0  0  0  0  0  0  0  0  0  0  0
  2  1  1  1
  2  3  1  0
  3  4  1  0
  4  5  1  0
  5  6  2  0
  6  7  1  0
  7  8  2  0
  8  9  1  0
  8 10  1  0
 10 11  1  0
  2 12  1  0
 12 13  2  0
 12 14  1  0
  9  4  2  0
M  END
>  <rName>  (2155) 
Ala_pyrimid4yl_2SMe

>  <PQ_SYMBOL>  (2155) 
Ala_pyrimid4yl_2SMe

>  <FULL_NAME>  (2155) 
(S)-2-amino-3-(2-(methylthio)pyrimidin-4-yl)propanoic acid

>  <IUPAC_CONDENSED>  (2155) 
Ala(pyrimid-4-yl(2-SMe))

>  <IUPAC>  (2155) 
(2S)-2-amino-3-(2-(methylsulfanyl)pyrimidin-4-yl)propanoic acid

>  <TYPE>  (2155) 
Backbone

>  <CLASS>  (2155) 
alpha

>  <ANALOG>  (2155) 
Phe

>  <MOL_WT>  (2155) 
213.26199999999997

>  <LOGP>  (2155) 
0.15289999999999976

>  <TPSA>  (2155) 
89.10000000000001

>  <POPULARITY>  (2155) 
2.7

>  <PROTECTED>  (2155) 
TRUE

>  <SMILES>  (2155) 
N[C@@H](Cc1(ccnc(n1)SC))C(=O)O

>  <INCHIKEY>  (2155) 
GRFRLBPIABADAZ-LURJTMIESA-N

$$$$
Ala_13benzodioxol4yl
     RDKit          2D

 15 16  0  0  0  0  0  0  0  0999 V2000
    2.3960   -1.7012    0.0000 N   0  0  0  0  0  0  0  0  0  0  0  0
    2.3823   -0.2013    0.0000 C   0  0  0  0  0  0  0  0  0  0  0  0
    1.0765    0.5368    0.0000 C   0  0  0  0  0  0  0  0  0  0  0  0
   -0.2156   -0.2250    0.0000 C   0  0  0  0  0  0  0  0  0  0  0  0
   -0.2020   -1.7249    0.0000 C   0  0  0  0  0  0  0  0  0  0  0  0
   -1.4941   -2.4867    0.0000 C   0  0  0  0  0  0  0  0  0  0  0  0
   -2.7999   -1.7486    0.0000 C   0  0  0  0  0  0  0  0  0  0  0  0
   -2.8136   -0.2486    0.0000 C   0  0  0  0  0  0  0  0  0  0  0  0
   -3.9374    0.7448    0.0000 O   0  0  0  0  0  0  0  0  0  0  0  0
   -3.3398    2.1207    0.0000 C   0  0  0  0  0  0  0  0  0  0  0  0
   -1.8467    1.9775    0.0000 O   0  0  0  0  0  0  0  0  0  0  0  0
   -1.5214    0.5132    0.0000 C   0  0  0  0  0  0  0  0  0  0  0  0
    3.6745    0.5605    0.0000 C   0  0  0  0  0  0  0  0  0  0  0  0
    3.6608    2.0605    0.0000 O   0  0  0  0  0  0  0  0  0  0  0  0
    4.9803   -0.1776    0.0000 O   0  0  0  0  0  0  0  0  0  0  0  0
  2  1  1  1
  2  3  1  0
  3  4  1  0
  4  5  1  0
  5  6  2  0
  6  7  1  0
  7  8  2  0
  8  9  1  0
  9 10  1  0
 10 11  1  0
 11 12  1  0
  2 13  1  0
 13 14  2  0
 13 15  1  0
 12  4  2  0
 12  8  1  0
M  END
>  <rName>  (2156) 
Ala_13benzodioxol4yl

>  <PQ_SYMBOL>  (2156) 
Ala_13benzodioxol4yl

>  <FULL_NAME>  (2156) 
(S)-2-amino-3-(benzo[d][1,3]dioxol-4-yl)propanoic acid

>  <IUPAC_CONDENSED>  (2156) 
Ala(1,3-benzodioxol-4-yl)

>  <IUPAC>  (2156) 
(2S)-2-amino-3-(7,9-dioxabicyclo[4.3.0]nona-1(6),2,4-trien-2-yl)propanoic acid

>  <TYPE>  (2156) 
Backbone

>  <CLASS>  (2156) 
alpha

>  <ANALOG>  (2156) 
Tyr

>  <MOL_WT>  (2156) 
209.20099999999994

>  <LOGP>  (2156) 
0.36969999999999986

>  <TPSA>  (2156) 
81.78

>  <POPULARITY>  (2156) 
2.9

>  <PROTECTED>  (2156) 
TRUE

>  <SMILES>  (2156) 
N[C@@H](Cc1(cccc2(OCOc12)))C(=O)O

>  <INCHIKEY>  (2156) 
WCBYRDURNLBWDD-ZETCQYMHSA-N

$$$$
Phe_2CO2H_5Me
     RDKit          2D

 16 16  0  0  0  0  0  0  0  0999 V2000
   -1.8615    2.0079    0.0000 N   0  0  0  0  0  0  0  0  0  0  0  0
   -2.1311    0.5324    0.0000 C   0  0  0  0  0  0  0  0  0  0  0  0
   -0.9881   -0.4389    0.0000 C   0  0  0  0  0  0  0  0  0  0  0  0
    0.4246    0.0654    0.0000 C   0  0  0  0  0  0  0  0  0  0  0  0
    0.6942    1.5409    0.0000 C   0  0  0  0  0  0  0  0  0  0  0  0
    2.1069    2.0452    0.0000 C   0  0  0  0  0  0  0  0  0  0  0  0
    2.3765    3.5208    0.0000 C   0  0  0  0  0  0  0  0  0  0  0  0
    3.2500    1.0739    0.0000 C   0  0  0  0  0  0  0  0  0  0  0  0
    2.9804   -0.4016    0.0000 C   0  0  0  0  0  0  0  0  0  0  0  0
    1.5677   -0.9059    0.0000 C   0  0  0  0  0  0  0  0  0  0  0  0
    1.2981   -2.3815    0.0000 C   0  0  0  0  0  0  0  0  0  0  0  0
   -0.1146   -2.8858    0.0000 O   0  0  0  0  0  0  0  0  0  0  0  0
    2.4411   -3.3528    0.0000 O   0  0  0  0  0  0  0  0  0  0  0  0
   -3.5438    0.0281    0.0000 C   0  0  0  0  0  0  0  0  0  0  0  0
   -3.8135   -1.4475    0.0000 O   0  0  0  0  0  0  0  0  0  0  0  0
   -4.6869    0.9993    0.0000 O   0  0  0  0  0  0  0  0  0  0  0  0
  2  1  1  1
  2  3  1  0
  3  4  1  0
  4  5  1  0
  5  6  2  0
  6  7  1  0
  6  8  1  0
  8  9  2  0
  9 10  1  0
 10 11  1  0
 11 12  2  0
 11 13  1  0
  2 14  1  0
 14 15  2  0
 14 16  1  0
 10  4  2  0
M  END
>  <rName>  (2157) 
Phe_2CO2H_5Me

>  <PQ_SYMBOL>  (2157) 
Phe_2CO2H_5Me

>  <FULL_NAME>  (2157) 
(S)-2-(2-amino-2-carboxyethyl)-4-methylbenzoic acid

>  <IUPAC_CONDENSED>  (2157) 
Phe(2-CO2H,5-Me)

>  <IUPAC>  (2157) 
2-((2S)-2-amino-3-hydroxy-3-oxopropyl)-4-methylbenzene-1-carboxylic acid

>  <TYPE>  (2157) 
Backbone

>  <CLASS>  (2157) 
alpha

>  <ANALOG>  (2157) 
Phe

>  <MOL_WT>  (2157) 
223.22799999999995

>  <LOGP>  (2157) 
0.64762

>  <TPSA>  (2157) 
100.62000000000002

>  <POPULARITY>  (2157) 
2.6

>  <PROTECTED>  (2157) 
TRUE

>  <SMILES>  (2157) 
N[C@@H](Cc1(cc(C)ccc1C(=O)O))C(=O)O

>  <INCHIKEY>  (2157) 
JMAXARUYMCXVCF-VIFPVBQESA-N

$$$$
Ala_pyridazin3yl_6Cl
     RDKit          2D

 13 13  0  0  0  0  0  0  0  0999 V2000
   -1.5766    1.6851    0.0000 N   0  0  0  0  0  0  0  0  0  0  0  0
   -2.0128    0.2500    0.0000 C   0  0  0  0  0  0  0  0  0  0  0  0
   -0.9880   -0.8454    0.0000 C   0  0  0  0  0  0  0  0  0  0  0  0
    0.4730   -0.5055    0.0000 C   0  0  0  0  0  0  0  0  0  0  0  0
    0.9092    0.9296    0.0000 C   0  0  0  0  0  0  0  0  0  0  0  0
    2.3702    1.2695    0.0000 C   0  0  0  0  0  0  0  0  0  0  0  0
    3.3950    0.1741    0.0000 C   0  0  0  0  0  0  0  0  0  0  0  0
    4.8560    0.5140    0.0000 Cl  0  0  0  0  0  0  0  0  0  0  0  0
    2.9588   -1.2611    0.0000 N   0  0  0  0  0  0  0  0  0  0  0  0
    1.4978   -1.6009    0.0000 N   0  0  0  0  0  0  0  0  0  0  0  0
   -3.4738   -0.0899    0.0000 C   0  0  0  0  0  0  0  0  0  0  0  0
   -3.9100   -1.5250    0.0000 O   0  0  0  0  0  0  0  0  0  0  0  0
   -4.4986    1.0055    0.0000 O   0  0  0  0  0  0  0  0  0  0  0  0
  2  1  1  1
  2  3  1  0
  3  4  1  0
  4  5  1  0
  5  6  2  0
  6  7  1  0
  7  8  1  0
  7  9  2  0
  9 10  1  0
  2 11  1  0
 11 12  2  0
 11 13  1  0
 10  4  2  0
M  END
>  <rName>  (2158) 
Ala_pyridazin3yl_6Cl

>  <PQ_SYMBOL>  (2158) 
Ala_pyridazin3yl_6Cl

>  <FULL_NAME>  (2158) 
(S)-2-amino-3-(6-chloropyridazin-3-yl)propanoic acid

>  <IUPAC_CONDENSED>  (2158) 
Ala(pyridazin-3-yl(6-Cl))

>  <IUPAC>  (2158) 
(2S)-2-amino-3-(6-chloropyridazin-3-yl)propanoic acid

>  <TYPE>  (2158) 
Backbone

>  <CLASS>  (2158) 
alpha

>  <ANALOG>  (2158) 
Phe

>  <MOL_WT>  (2158) 
201.613

>  <LOGP>  (2158) 
0.08439999999999975

>  <TPSA>  (2158) 
89.10000000000001

>  <POPULARITY>  (2158) 
2.6

>  <PROTECTED>  (2158) 
TRUE

>  <SMILES>  (2158) 
N[C@@H](Cc1(ccc(Cl)nn1))C(=O)O

>  <INCHIKEY>  (2158) 
DDCIPAULZBTVPC-YFKPBYRVSA-N

$$$$
Phe_3CO2H_4Me
     RDKit          2D

 16 16  0  0  0  0  0  0  0  0999 V2000
   -2.7936    1.6481    0.0000 N   0  0  0  0  0  0  0  0  0  0  0  0
   -2.9203    0.1535    0.0000 C   0  0  0  0  0  0  0  0  0  0  0  0
   -1.6893   -0.7036    0.0000 C   0  0  0  0  0  0  0  0  0  0  0  0
   -0.3315   -0.0660    0.0000 C   0  0  0  0  0  0  0  0  0  0  0  0
   -0.2048    1.4287    0.0000 C   0  0  0  0  0  0  0  0  0  0  0  0
    1.1530    2.0662    0.0000 C   0  0  0  0  0  0  0  0  0  0  0  0
    2.3840    1.2092    0.0000 C   0  0  0  0  0  0  0  0  0  0  0  0
    3.7417    1.8468    0.0000 C   0  0  0  0  0  0  0  0  0  0  0  0
    2.2573   -0.2855    0.0000 C   0  0  0  0  0  0  0  0  0  0  0  0
    0.8995   -0.9230    0.0000 C   0  0  0  0  0  0  0  0  0  0  0  0
    3.4883   -1.1425    0.0000 C   0  0  0  0  0  0  0  0  0  0  0  0
    4.8461   -0.5049    0.0000 O   0  0  0  0  0  0  0  0  0  0  0  0
    3.3616   -2.6372    0.0000 O   0  0  0  0  0  0  0  0  0  0  0  0
   -4.2781   -0.4841    0.0000 C   0  0  0  0  0  0  0  0  0  0  0  0
   -4.4048   -1.9787    0.0000 O   0  0  0  0  0  0  0  0  0  0  0  0
   -5.5091    0.3730    0.0000 O   0  0  0  0  0  0  0  0  0  0  0  0
  2  1  1  1
  2  3  1  0
  3  4  1  0
  4  5  1  0
  5  6  2  0
  6  7  1  0
  7  8  1  0
  7  9  2  0
  9 10  1  0
  9 11  1  0
 11 12  2  0
 11 13  1  0
  2 14  1  0
 14 15  2  0
 14 16  1  0
 10  4  2  0
M  END
>  <rName>  (2159) 
Phe_3CO2H_4Me

>  <PQ_SYMBOL>  (2159) 
Phe_3CO2H_4Me

>  <FULL_NAME>  (2159) 
(S)-5-(2-amino-2-carboxyethyl)-2-methylbenzoic acid

>  <IUPAC_CONDENSED>  (2159) 
Phe(3-CO2H,4-Me)

>  <IUPAC>  (2159) 
5-((2S)-2-amino-3-hydroxy-3-oxopropyl)-2-methylbenzene-1-carboxylic acid

>  <TYPE>  (2159) 
Backbone

>  <CLASS>  (2159) 
alpha

>  <ANALOG>  (2159) 
Phe

>  <MOL_WT>  (2159) 
223.22799999999998

>  <LOGP>  (2159) 
0.64762

>  <TPSA>  (2159) 
100.62000000000002

>  <POPULARITY>  (2159) 
4.3

>  <PROTECTED>  (2159) 
TRUE

>  <SMILES>  (2159) 
N[C@@H](Cc1(ccc(C)c(c1)C(=O)O))C(=O)O

>  <INCHIKEY>  (2159) 
KBUTYUKZWBMHBM-VIFPVBQESA-N

$$$$
Nle_ethynyl
     RDKit          2D

 11 10  0  0  0  0  0  0  0  0999 V2000
   -2.1124    1.8649    0.0000 N   0  0  0  0  0  0  0  0  0  0  0  0
   -2.0306    0.3672    0.0000 C   0  0  0  0  0  0  0  0  0  0  0  0
   -0.6927   -0.3109    0.0000 C   0  0  0  0  0  0  0  0  0  0  0  0
    0.5636    0.5087    0.0000 C   0  0  0  0  0  0  0  0  0  0  0  0
    1.9016   -0.1694    0.0000 C   0  0  0  0  0  0  0  0  0  0  0  0
    3.1578    0.6503    0.0000 C   0  0  0  0  0  0  0  0  0  0  0  0
    4.4958   -0.0278    0.0000 C   0  0  0  0  0  0  0  0  0  0  0  0
    5.8338   -0.7059    0.0000 C   0  0  0  0  0  0  0  0  0  0  0  0
   -3.2869   -0.4525    0.0000 C   0  0  0  0  0  0  0  0  0  0  0  0
   -3.2051   -1.9503    0.0000 O   0  0  0  0  0  0  0  0  0  0  0  0
   -4.6248    0.2256    0.0000 O   0  0  0  0  0  0  0  0  0  0  0  0
  2  1  1  1
  2  3  1  0
  3  4  1  0
  4  5  1  0
  5  6  1  0
  6  7  1  0
  7  8  3  0
  2  9  1  0
  9 10  2  0
  9 11  1  0
M  END
>  <rName>  (2160) 
Nle_ethynyl

>  <PQ_SYMBOL>  (2160) 
Nle_ethynyl

>  <FULL_NAME>  (2160) 
(S)-2-aminooct-7-ynoic acid

>  <IUPAC_CONDENSED>  (2160) 
Nle(ethynyl)

>  <IUPAC>  (2160) 
(2S)-2-aminooct-7-ynoic acid

>  <TYPE>  (2160) 
Backbone

>  <CLASS>  (2160) 
alpha

>  <ANALOG>  (2160) 
Leu

>  <MOL_WT>  (2160) 
155.197

>  <LOGP>  (2160) 
0.5918999999999999

>  <TPSA>  (2160) 
63.32000000000001

>  <POPULARITY>  (2160) 
3.9

>  <PROTECTED>  (2160) 
TRUE

>  <SMILES>  (2160) 
N[C@@H](CCCCC#C)C(=O)O

>  <INCHIKEY>  (2160) 
HYWGKAZTGORCAE-ZETCQYMHSA-N

$$$$
4Pal_2Cl_5Me
     RDKit          2D

 14 14  0  0  0  0  0  0  0  0999 V2000
   -1.4552    1.7882    0.0000 N   0  0  0  0  0  0  0  0  0  0  0  0
   -1.9325    0.3661    0.0000 C   0  0  0  0  0  0  0  0  0  0  0  0
   -0.9397   -0.7583    0.0000 C   0  0  0  0  0  0  0  0  0  0  0  0
    0.5305   -0.4606    0.0000 C   0  0  0  0  0  0  0  0  0  0  0  0
    1.0078    0.9614    0.0000 C   0  0  0  0  0  0  0  0  0  0  0  0
    2.4780    1.2591    0.0000 C   0  0  0  0  0  0  0  0  0  0  0  0
    2.9553    2.6811    0.0000 Cl  0  0  0  0  0  0  0  0  0  0  0  0
    3.4709    0.1347    0.0000 N   0  0  0  0  0  0  0  0  0  0  0  0
    2.9935   -1.2874    0.0000 C   0  0  0  0  0  0  0  0  0  0  0  0
    1.5234   -1.5850    0.0000 C   0  0  0  0  0  0  0  0  0  0  0  0
    1.0461   -3.0070    0.0000 C   0  0  0  0  0  0  0  0  0  0  0  0
   -3.4027    0.0685    0.0000 C   0  0  0  0  0  0  0  0  0  0  0  0
   -3.8800   -1.3536    0.0000 O   0  0  0  0  0  0  0  0  0  0  0  0
   -4.3955    1.1929    0.0000 O   0  0  0  0  0  0  0  0  0  0  0  0
  2  1  1  1
  2  3  1  0
  3  4  1  0
  4  5  1  0
  5  6  2  0
  6  7  1  0
  6  8  1  0
  8  9  2  0
  9 10  1  0
 10 11  1  0
  2 12  1  0
 12 13  2  0
 12 14  1  0
 10  4  2  0
M  END
>  <rName>  (2161) 
4Pal_2Cl_5Me

>  <PQ_SYMBOL>  (2161) 
4Pal_2Cl_5Me

>  <FULL_NAME>  (2161) 
(S)-2-amino-3-(2-chloro-5-methylpyridin-4-yl)propanoic acid

>  <IUPAC_CONDENSED>  (2161) 
4Pal(2-Cl,5-Me)

>  <IUPAC>  (2161) 
(2S)-2-amino-3-(2-chloro-5-methylpyridin-4-yl)propanoic acid

>  <TYPE>  (2161) 
Backbone

>  <CLASS>  (2161) 
alpha

>  <ANALOG>  (2161) 
Phe

>  <MOL_WT>  (2161) 
214.652

>  <LOGP>  (2161) 
0.9978199999999999

>  <TPSA>  (2161) 
76.21

>  <POPULARITY>  (2161) 
2.5

>  <PROTECTED>  (2161) 
TRUE

>  <SMILES>  (2161) 
N[C@@H](Cc1(cc(Cl)ncc1C))C(=O)O

>  <INCHIKEY>  (2161) 
UFQARVWZVUZHAL-ZETCQYMHSA-N

$$$$
Phe_2Me_4F
     RDKit          2D

 14 14  0  0  0  0  0  0  0  0999 V2000
   -1.7174    1.8436    0.0000 N   0  0  0  0  0  0  0  0  0  0  0  0
   -2.1036    0.3942    0.0000 C   0  0  0  0  0  0  0  0  0  0  0  0
   -1.0414   -0.6650    0.0000 C   0  0  0  0  0  0  0  0  0  0  0  0
    0.4069   -0.2747    0.0000 C   0  0  0  0  0  0  0  0  0  0  0  0
    0.7931    1.1747    0.0000 C   0  0  0  0  0  0  0  0  0  0  0  0
    2.2415    1.5649    0.0000 C   0  0  0  0  0  0  0  0  0  0  0  0
    3.3036    0.5057    0.0000 C   0  0  0  0  0  0  0  0  0  0  0  0
    4.7520    0.8960    0.0000 F   0  0  0  0  0  0  0  0  0  0  0  0
    2.9174   -0.9437    0.0000 C   0  0  0  0  0  0  0  0  0  0  0  0
    1.4691   -1.3339    0.0000 C   0  0  0  0  0  0  0  0  0  0  0  0
    1.0829   -2.7834    0.0000 C   0  0  0  0  0  0  0  0  0  0  0  0
   -3.5519    0.0039    0.0000 C   0  0  0  0  0  0  0  0  0  0  0  0
   -3.9381   -1.4455    0.0000 O   0  0  0  0  0  0  0  0  0  0  0  0
   -4.6140    1.0631    0.0000 O   0  0  0  0  0  0  0  0  0  0  0  0
  2  1  1  1
  2  3  1  0
  3  4  1  0
  4  5  1  0
  5  6  2  0
  6  7  1  0
  7  8  1  0
  7  9  2  0
  9 10  1  0
 10 11  1  0
  2 12  1  0
 12 13  2  0
 12 14  1  0
 10  4  2  0
M  END
>  <rName>  (2162) 
Phe_2Me_4F

>  <PQ_SYMBOL>  (2162) 
Phe_2Me_4F

>  <FULL_NAME>  (2162) 
(S)-2-amino-3-(4-fluoro-2-methylphenyl)propanoic acid

>  <IUPAC_CONDENSED>  (2162) 
Phe(2-Me,4-F)

>  <IUPAC>  (2162) 
(2S)-2-amino-3-(4-fluoro-2-methylphenyl)propanoic acid

>  <TYPE>  (2162) 
Backbone

>  <CLASS>  (2162) 
alpha

>  <ANALOG>  (2162) 
Phe

>  <MOL_WT>  (2162) 
197.20899999999997

>  <LOGP>  (2162) 
1.0885200000000002

>  <TPSA>  (2162) 
63.32000000000001

>  <POPULARITY>  (2162) 
4.2

>  <PROTECTED>  (2162) 
TRUE

>  <SMILES>  (2162) 
N[C@@H](Cc1(ccc(F)cc1C))C(=O)O

>  <INCHIKEY>  (2162) 
WDSUDTPFZZINJC-VIFPVBQESA-N

$$$$
Ala_1Hindazolyl
     RDKit          2D

 15 16  0  0  0  0  0  0  0  0999 V2000
    2.4169   -1.6715    0.0000 N   0  0  0  0  0  0  0  0  0  0  0  0
    2.6919   -0.1969    0.0000 C   0  0  0  0  0  0  0  0  0  0  0  0
    1.5524    0.7786    0.0000 C   0  0  0  0  0  0  0  0  0  0  0  0
    0.1379    0.2795    0.0000 C   0  0  0  0  0  0  0  0  0  0  0  0
   -0.1372   -1.1951    0.0000 C   0  0  0  0  0  0  0  0  0  0  0  0
   -1.5517   -1.6942    0.0000 C   0  0  0  0  0  0  0  0  0  0  0  0
   -2.6912   -0.7188    0.0000 C   0  0  0  0  0  0  0  0  0  0  0  0
   -4.1786   -0.9129    0.0000 C   0  0  0  0  0  0  0  0  0  0  0  0
   -4.8228    0.4417    0.0000 N   0  0  0  0  0  0  0  0  0  0  0  0
   -3.7336    1.4730    0.0000 N   0  0  0  0  0  0  0  0  0  0  0  0
   -2.4162    0.7558    0.0000 C   0  0  0  0  0  0  0  0  0  0  0  0
   -1.0016    1.2549    0.0000 C   0  0  0  0  0  0  0  0  0  0  0  0
    4.1064    0.3022    0.0000 C   0  0  0  0  0  0  0  0  0  0  0  0
    4.3814    1.7768    0.0000 O   0  0  0  0  0  0  0  0  0  0  0  0
    5.2459   -0.6732    0.0000 O   0  0  0  0  0  0  0  0  0  0  0  0
  2  1  1  1
  2  3  1  0
  3  4  1  0
  4  5  1  0
  5  6  2  0
  6  7  1  0
  7  8  1  0
  8  9  2  0
  9 10  1  0
 10 11  1  0
 11 12  1  0
  2 13  1  0
 13 14  2  0
 13 15  1  0
 11  7  2  0
 12  4  2  0
M  END
>  <rName>  (2163) 
Ala_1Hindazolyl

>  <PQ_SYMBOL>  (2163) 
Ala_1Hindazolyl

>  <FULL_NAME>  (2163) 
(S)-2-amino-3-(1H-indazol-6-yl)propanoic acid

>  <IUPAC_CONDENSED>  (2163) 
Ala(1H-indazolyl)

>  <IUPAC>  (2163) 
(2S)-2-amino-3-(1H-indazol-6-yl)propanoic acid

>  <TYPE>  (2163) 
Backbone

>  <CLASS>  (2163) 
alpha

>  <ANALOG>  (2163) 
Phe

>  <MOL_WT>  (2163) 
205.21699999999998

>  <LOGP>  (2163) 
0.5172999999999999

>  <TPSA>  (2163) 
92

>  <POPULARITY>  (2163) 
2.7

>  <PROTECTED>  (2163) 
TRUE

>  <SMILES>  (2163) 
N[C@@H](Cc2(ccc1(cn[nH]c1c2)))C(=O)O

>  <INCHIKEY>  (2163) 
OYMNKWWOWKDCMR-QMMMGPOBSA-N

$$$$
Phe_23diMe_4OMe
     RDKit          2D

 16 16  0  0  0  0  0  0  0  0999 V2000
   -2.2239    1.8990    0.0000 N   0  0  0  0  0  0  0  0  0  0  0  0
   -2.6592    0.4635    0.0000 C   0  0  0  0  0  0  0  0  0  0  0  0
   -1.6337   -0.6312    0.0000 C   0  0  0  0  0  0  0  0  0  0  0  0
   -0.1729   -0.2904    0.0000 C   0  0  0  0  0  0  0  0  0  0  0  0
    0.2624    1.1450    0.0000 C   0  0  0  0  0  0  0  0  0  0  0  0
    1.7232    1.4857    0.0000 C   0  0  0  0  0  0  0  0  0  0  0  0
    2.7487    0.3910    0.0000 C   0  0  0  0  0  0  0  0  0  0  0  0
    4.2094    0.7318    0.0000 O   0  0  0  0  0  0  0  0  0  0  0  0
    4.6448    2.1672    0.0000 C   0  0  0  0  0  0  0  0  0  0  0  0
    2.3133   -1.0444    0.0000 C   0  0  0  0  0  0  0  0  0  0  0  0
    3.3388   -2.1391    0.0000 C   0  0  0  0  0  0  0  0  0  0  0  0
    0.8526   -1.3852    0.0000 C   0  0  0  0  0  0  0  0  0  0  0  0
    0.4172   -2.8206    0.0000 C   0  0  0  0  0  0  0  0  0  0  0  0
   -4.1200    0.1228    0.0000 C   0  0  0  0  0  0  0  0  0  0  0  0
   -4.5553   -1.3126    0.0000 O   0  0  0  0  0  0  0  0  0  0  0  0
   -5.1454    1.2175    0.0000 O   0  0  0  0  0  0  0  0  0  0  0  0
  2  1  1  1
  2  3  1  0
  3  4  1  0
  4  5  1  0
  5  6  2  0
  6  7  1  0
  7  8  1  0
  8  9  1  0
  7 10  2  0
 10 11  1  0
 10 12  1  0
 12 13  1  0
  2 14  1  0
 14 15  2  0
 14 16  1  0
 12  4  2  0
M  END
>  <rName>  (2164) 
Phe_23diMe_4OMe

>  <PQ_SYMBOL>  (2164) 
Phe_23diMe_4OMe

>  <FULL_NAME>  (2164) 
(S)-2-amino-3-(4-methoxy-2,3-dimethylphenyl)propanoic acid

>  <IUPAC_CONDENSED>  (2164) 
Phe(2,3-diMe,4-OMe)

>  <IUPAC>  (2164) 
(2S)-2-amino-3-(4-methoxy-2,3-dimethylphenyl)propanoic acid

>  <TYPE>  (2164) 
Backbone

>  <CLASS>  (2164) 
alpha

>  <ANALOG>  (2164) 
Tyr

>  <MOL_WT>  (2164) 
223.27199999999996

>  <LOGP>  (2164) 
1.2664399999999998

>  <TPSA>  (2164) 
72.55

>  <POPULARITY>  (2164) 
3

>  <PROTECTED>  (2164) 
TRUE

>  <SMILES>  (2164) 
N[C@@H](Cc1(ccc(OC)c(C)c1C))C(=O)O

>  <INCHIKEY>  (2164) 
XOXKSLGPWZNSBO-JTQLQIEISA-N

$$$$
HOCOCH2-bAla-NH2
     RDKit          2D

 10  9  0  0  0  0  0  0  0  0999 V2000
    0.6897   -0.2947    0.0000 N   0  0  0  0  0  0  0  0  0  0  0  0
   -0.6897    0.2947    0.0000 C   0  0  0  0  0  0  0  0  0  0  0  0
   -1.8898   -0.6050    0.0000 C   0  0  0  0  0  0  0  0  0  0  0  0
   -3.2691   -0.0155    0.0000 C   0  0  0  0  0  0  0  0  0  0  0  0
   -3.4483    1.4737    0.0000 O   0  0  0  0  0  0  0  0  0  0  0  0
   -4.4693   -0.9153    0.0000 N   0  0  0  0  0  0  0  0  0  0  0  0
    1.8898    0.6050    0.0000 C   0  0  0  0  0  0  0  0  0  0  0  0
    3.2691    0.0155    0.0000 C   0  0  0  0  0  0  0  0  0  0  0  0
    3.4483   -1.4737    0.0000 O   0  0  0  0  0  0  0  0  0  0  0  0
    4.4693    0.9153    0.0000 O   0  0  0  0  0  0  0  0  0  0  0  0
  1  2  1  0
  2  3  1  0
  3  4  1  0
  4  5  2  0
  4  6  1  0
  1  7  1  0
  7  8  1  0
  8  9  2  0
  8 10  1  0
M  END
>  <rName>  (2165) 
HOCOCH2-bAla-NH2

>  <PQ_SYMBOL>  (2165) 
HOCOCH2-bAla-NH2

>  <FULL_NAME>  (2165) 
(3-amino-3-oxopropyl)glycine

>  <IUPAC_CONDENSED>  (2165) 
HOCOCH2-bAla-NH2

>  <IUPAC>  (2165) 
2-((3-amino-3-oxopropyl)amino)acetic acid

>  <TYPE>  (2165) 
Backbone

>  <CLASS>  (2165) 
alpha

>  <ANALOG>  (2165) 
Gly

>  <MOL_WT>  (2165) 
146.14600000000002

>  <LOGP>  (2165) 
-1.463999999999999

>  <TPSA>  (2165) 
92.42

>  <POPULARITY>  (2165) 
11.6

>  <PROTECTED>  (2165) 
TRUE

>  <SMILES>  (2165) 
N(CCC(=O)N)CC(=O)O

>  <INCHIKEY>  (2165) 
MNDBDVPDSHGIHR-UHFFFAOYSA-N

$$$$
Phe_2OMe_5NO2
     RDKit          2D

 17 17  0  0  0  0  0  0  0  0999 V2000
    1.5479   -2.0183    0.0000 N   0  0  0  0  0  0  0  0  0  0  0  0
    2.3239   -0.7347    0.0000 C   0  0  0  0  0  0  0  0  0  0  0  0
    1.6002    0.5792    0.0000 C   0  0  0  0  0  0  0  0  0  0  0  0
    0.1005    0.6094    0.0000 C   0  0  0  0  0  0  0  0  0  0  0  0
   -0.6755   -0.6743    0.0000 C   0  0  0  0  0  0  0  0  0  0  0  0
   -2.1752   -0.6441    0.0000 C   0  0  0  0  0  0  0  0  0  0  0  0
   -2.8989    0.6698    0.0000 C   0  0  0  0  0  0  0  0  0  0  0  0
   -2.1229    1.9535    0.0000 C   0  0  0  0  0  0  0  0  0  0  0  0
   -0.6232    1.9233    0.0000 C   0  0  0  0  0  0  0  0  0  0  0  0
    0.1528    3.2070    0.0000 O   0  0  0  0  0  0  0  0  0  0  0  0
   -0.5709    4.5208    0.0000 C   0  0  0  0  0  0  0  0  0  0  0  0
   -2.9512   -1.9278    0.0000 N   0  0  0  0  0  0  0  0  0  0  0  0
   -2.2275   -3.2416    0.0000 O   0  0  0  0  0  0  0  0  0  0  0  0
   -4.4509   -1.8976    0.0000 O   0  0  0  0  0  0  0  0  0  0  0  0
    3.8236   -0.7648    0.0000 C   0  0  0  0  0  0  0  0  0  0  0  0
    4.5996    0.5188    0.0000 O   0  0  0  0  0  0  0  0  0  0  0  0
    4.5473   -2.0787    0.0000 O   0  0  0  0  0  0  0  0  0  0  0  0
  2  1  1  1
  2  3  1  0
  3  4  1  0
  4  5  1  0
  5  6  2  0
  6  7  1  0
  7  8  2  0
  8  9  1  0
  9 10  1  0
 10 11  1  0
  6 12  1  0
 12 13  2  0
 12 14  1  0
  2 15  1  0
 15 16  2  0
 15 17  1  0
  9  4  2  0
M  CHG  2  12   1  14  -1
M  END
>  <rName>  (2166) 
Phe_2OMe_5NO2

>  <PQ_SYMBOL>  (2166) 
Phe_2OMe_5NO2

>  <FULL_NAME>  (2166) 
(S)-2-amino-3-(2-methoxy-5-nitrophenyl)propanoic acid

>  <IUPAC_CONDENSED>  (2166) 
Phe(2-OMe,5-NO2)

>  <IUPAC>  (2166) 
(2S)-2-amino-3-(2-methoxy-5-nitrophenyl)propanoic acid

>  <TYPE>  (2166) 
Backbone

>  <CLASS>  (2166) 
alpha

>  <ANALOG>  (2166) 
Tyr

>  <MOL_WT>  (2166) 
240.21499999999995

>  <LOGP>  (2166) 
0.5578000000000001

>  <TPSA>  (2166) 
115.69000000000001

>  <POPULARITY>  (2166) 
3.2

>  <PROTECTED>  (2166) 
TRUE

>  <SMILES>  (2166) 
N[C@@H](Cc1(cc(ccc1OC)[N+](=O)[O-]))C(=O)O

>  <INCHIKEY>  (2166) 
QUYPVQLXQVVAGB-QMMMGPOBSA-N

$$$$
D-Phe_2Cl_5Br
     RDKit          2D

 14 14  0  0  0  0  0  0  0  0999 V2000
   -1.4552    1.7882    0.0000 N   0  0  0  0  0  0  0  0  0  0  0  0
   -1.9325    0.3661    0.0000 C   0  0  0  0  0  0  0  0  0  0  0  0
   -0.9397   -0.7583    0.0000 C   0  0  0  0  0  0  0  0  0  0  0  0
    0.5305   -0.4606    0.0000 C   0  0  0  0  0  0  0  0  0  0  0  0
    1.0078    0.9614    0.0000 C   0  0  0  0  0  0  0  0  0  0  0  0
    2.4780    1.2591    0.0000 C   0  0  0  0  0  0  0  0  0  0  0  0
    2.9553    2.6811    0.0000 Br  0  0  0  0  0  0  0  0  0  0  0  0
    3.4709    0.1347    0.0000 C   0  0  0  0  0  0  0  0  0  0  0  0
    2.9935   -1.2874    0.0000 C   0  0  0  0  0  0  0  0  0  0  0  0
    1.5234   -1.5850    0.0000 C   0  0  0  0  0  0  0  0  0  0  0  0
    1.0461   -3.0070    0.0000 Cl  0  0  0  0  0  0  0  0  0  0  0  0
   -3.4027    0.0685    0.0000 C   0  0  0  0  0  0  0  0  0  0  0  0
   -3.8800   -1.3536    0.0000 O   0  0  0  0  0  0  0  0  0  0  0  0
   -4.3955    1.1929    0.0000 O   0  0  0  0  0  0  0  0  0  0  0  0
  2  1  1  6
  2  3  1  0
  3  4  1  0
  4  5  1  0
  5  6  2  0
  6  7  1  0
  6  8  1  0
  8  9  2  0
  9 10  1  0
 10 11  1  0
  2 12  1  0
 12 13  2  0
 12 14  1  0
 10  4  2  0
M  END
>  <rName>  (2167) 
D-Phe_2Cl_5Br

>  <PQ_SYMBOL>  (2167) 
D-Phe_2Cl_5Br

>  <FULL_NAME>  (2167) 
(R)-2-amino-3-(5-bromo-2-chlorophenyl)propanoic acid

>  <IUPAC_CONDENSED>  (2167) 
D-Phe(2-Cl,5-Br)

>  <IUPAC>  (2167) 
(2R)-2-amino-3-(5-bromo-2-chlorophenyl)propanoic acid

>  <TYPE>  (2167) 
Backbone

>  <CLASS>  (2167) 
alpha

>  <ANALOG>  (2167) 
Phe

>  <MOL_WT>  (2167) 
278.533

>  <LOGP>  (2167) 
2.0569

>  <TPSA>  (2167) 
63.32000000000001

>  <POPULARITY>  (2167) 
2.9

>  <PROTECTED>  (2167) 
TRUE

>  <SMILES>  (2167) 
N[C@H](Cc1(cc(Br)ccc1Cl))C(=O)O

>  <INCHIKEY>  (2167) 
WHUPPRGZWKRSEB-MRVPVSSYSA-N

$$$$
Phe_3Me_5Cl
     RDKit          2D

 14 14  0  0  0  0  0  0  0  0999 V2000
   -1.8014    1.6047    0.0000 N   0  0  0  0  0  0  0  0  0  0  0  0
   -2.1617    0.1486    0.0000 C   0  0  0  0  0  0  0  0  0  0  0  0
   -1.0809   -0.8915    0.0000 C   0  0  0  0  0  0  0  0  0  0  0  0
    0.3603   -0.4755    0.0000 C   0  0  0  0  0  0  0  0  0  0  0  0
    0.7206    0.9806    0.0000 C   0  0  0  0  0  0  0  0  0  0  0  0
    2.1617    1.3967    0.0000 C   0  0  0  0  0  0  0  0  0  0  0  0
    2.5220    2.8527    0.0000 C   0  0  0  0  0  0  0  0  0  0  0  0
    3.2426    0.3566    0.0000 C   0  0  0  0  0  0  0  0  0  0  0  0
    2.8823   -1.0995    0.0000 C   0  0  0  0  0  0  0  0  0  0  0  0
    3.9632   -2.1396    0.0000 Cl  0  0  0  0  0  0  0  0  0  0  0  0
    1.4412   -1.5155    0.0000 C   0  0  0  0  0  0  0  0  0  0  0  0
   -3.6029   -0.2674    0.0000 C   0  0  0  0  0  0  0  0  0  0  0  0
   -3.9632   -1.7235    0.0000 O   0  0  0  0  0  0  0  0  0  0  0  0
   -4.6837    0.7726    0.0000 O   0  0  0  0  0  0  0  0  0  0  0  0
  2  1  1  1
  2  3  1  0
  3  4  1  0
  4  5  2  0
  5  6  1  0
  6  7  1  0
  6  8  2  0
  8  9  1  0
  9 10  1  0
  9 11  2  0
  2 12  1  0
 12 13  2  0
 12 14  1  0
 11  4  1  0
M  END
>  <rName>  (2168) 
Phe_3Me_5Cl

>  <PQ_SYMBOL>  (2168) 
Phe_3Me_5Cl

>  <FULL_NAME>  (2168) 
(S)-2-amino-3-(3-chloro-5-methylphenyl)propanoic acid

>  <IUPAC_CONDENSED>  (2168) 
Phe(3-Me,5-Cl)

>  <IUPAC>  (2168) 
(2S)-2-amino-3-(3-chloro-5-methylphenyl)propanoic acid

>  <TYPE>  (2168) 
Backbone

>  <CLASS>  (2168) 
alpha

>  <ANALOG>  (2168) 
Phe

>  <MOL_WT>  (2168) 
213.664

>  <LOGP>  (2168) 
1.6028200000000001

>  <TPSA>  (2168) 
63.32000000000001

>  <POPULARITY>  (2168) 
4.1

>  <PROTECTED>  (2168) 
TRUE

>  <SMILES>  (2168) 
N[C@@H](Cc1(cc(C)cc(Cl)c1))C(=O)O

>  <INCHIKEY>  (2168) 
FVEBDZVIMRPQPK-VIFPVBQESA-N

$$$$
Phe_42_5diMepyrrol1yl
     RDKit          2D

 19 20  0  0  0  0  0  0  0  0999 V2000
   -3.3688    1.6810    0.0000 N   0  0  0  0  0  0  0  0  0  0  0  0
   -3.9061    0.2806    0.0000 C   0  0  0  0  0  0  0  0  0  0  0  0
   -2.9620   -0.8850    0.0000 C   0  0  0  0  0  0  0  0  0  0  0  0
   -1.4805   -0.6501    0.0000 C   0  0  0  0  0  0  0  0  0  0  0  0
   -0.9432    0.7504    0.0000 C   0  0  0  0  0  0  0  0  0  0  0  0
    0.5383    0.9853    0.0000 C   0  0  0  0  0  0  0  0  0  0  0  0
    1.4825   -0.1803    0.0000 C   0  0  0  0  0  0  0  0  0  0  0  0
    0.9452   -1.5807    0.0000 C   0  0  0  0  0  0  0  0  0  0  0  0
   -0.5363   -1.8156    0.0000 C   0  0  0  0  0  0  0  0  0  0  0  0
    2.9640    0.0546    0.0000 N   0  0  0  0  0  0  0  0  0  0  0  0
    3.6448    1.3912    0.0000 C   0  0  0  0  0  0  0  0  0  0  0  0
    2.9636    2.7276    0.0000 C   0  0  0  0  0  0  0  0  0  0  0  0
    5.1263    1.1568    0.0000 C   0  0  0  0  0  0  0  0  0  0  0  0
    5.3612   -0.3247    0.0000 C   0  0  0  0  0  0  0  0  0  0  0  0
    4.0248   -1.0059    0.0000 C   0  0  0  0  0  0  0  0  0  0  0  0
    3.7904   -2.4874    0.0000 C   0  0  0  0  0  0  0  0  0  0  0  0
   -5.3876    0.0457    0.0000 C   0  0  0  0  0  0  0  0  0  0  0  0
   -5.9250   -1.3548    0.0000 O   0  0  0  0  0  0  0  0  0  0  0  0
   -6.3318    1.2112    0.0000 O   0  0  0  0  0  0  0  0  0  0  0  0
  2  1  1  1
  2  3  1  0
  3  4  1  0
  4  5  1  0
  5  6  2  0
  6  7  1  0
  7  8  2  0
  8  9  1  0
  7 10  1  0
 10 11  1  0
 11 12  1  0
 11 13  2  0
 13 14  1  0
 14 15  2  0
 15 16  1  0
  2 17  1  0
 17 18  2  0
 17 19  1  0
  9  4  2  0
 15 10  1  0
M  END
>  <rName>  (2169) 
Phe_42_5diMepyrrol1yl

>  <PQ_SYMBOL>  (2169) 
Phe_42_5diMepyrrol1yl

>  <FULL_NAME>  (2169) 
(S)-2-amino-3-(4-(2,5-dimethyl-1H-pyrrol-1-yl)phenyl)propanoic acid

>  <IUPAC_CONDENSED>  (2169) 
Phe(4-2,5-diMe-pyrrol-1-yl)

>  <IUPAC>  (2169) 
(2S)-2-amino-3-(4-(2,5-dimethyl-1H-pyrrol-1-yl)phenyl)propanoic acid

>  <TYPE>  (2169) 
Backbone

>  <CLASS>  (2169) 
alpha

>  <ANALOG>  (2169) 
Phe

>  <MOL_WT>  (2169) 
258.3209999999999

>  <LOGP>  (2169) 
2.04854

>  <TPSA>  (2169) 
68.25

>  <POPULARITY>  (2169) 
2.6

>  <PROTECTED>  (2169) 
TRUE

>  <SMILES>  (2169) 
N[C@@H](Cc1(ccc(cc1)n2(c(C)ccc2C)))C(=O)O

>  <INCHIKEY>  (2169) 
YJXFEIFSKOMFCJ-AWEZNQCLSA-N

$$$$
Phe_24diF_5CO2H
     RDKit          2D

 17 17  0  0  0  0  0  0  0  0999 V2000
    1.7999   -1.7667    0.0000 N   0  0  0  0  0  0  0  0  0  0  0  0
    2.5565   -0.4715    0.0000 C   0  0  0  0  0  0  0  0  0  0  0  0
    1.8131    0.8314    0.0000 C   0  0  0  0  0  0  0  0  0  0  0  0
    0.3131    0.8390    0.0000 C   0  0  0  0  0  0  0  0  0  0  0  0
   -0.4435   -0.4562    0.0000 C   0  0  0  0  0  0  0  0  0  0  0  0
   -1.9435   -0.4486    0.0000 C   0  0  0  0  0  0  0  0  0  0  0  0
   -2.7001   -1.7438    0.0000 C   0  0  0  0  0  0  0  0  0  0  0  0
   -1.9567   -3.0467    0.0000 O   0  0  0  0  0  0  0  0  0  0  0  0
   -4.2000   -1.7362    0.0000 O   0  0  0  0  0  0  0  0  0  0  0  0
   -2.6869    0.8542    0.0000 C   0  0  0  0  0  0  0  0  0  0  0  0
   -4.1869    0.8618    0.0000 F   0  0  0  0  0  0  0  0  0  0  0  0
   -1.9303    2.1494    0.0000 C   0  0  0  0  0  0  0  0  0  0  0  0
   -0.4303    2.1418    0.0000 C   0  0  0  0  0  0  0  0  0  0  0  0
    0.3263    3.4370    0.0000 F   0  0  0  0  0  0  0  0  0  0  0  0
    4.0564   -0.4791    0.0000 C   0  0  0  0  0  0  0  0  0  0  0  0
    4.8130    0.8161    0.0000 O   0  0  0  0  0  0  0  0  0  0  0  0
    4.7998   -1.7819    0.0000 O   0  0  0  0  0  0  0  0  0  0  0  0
  2  1  1  1
  2  3  1  0
  3  4  1  0
  4  5  2  0
  5  6  1  0
  6  7  1  0
  7  8  2  0
  7  9  1  0
  6 10  2  0
 10 11  1  0
 10 12  1  0
 12 13  2  0
 13 14  1  0
  2 15  1  0
 15 16  2  0
 15 17  1  0
 13  4  1  0
M  END
>  <rName>  (2170) 
Phe_24diF_5CO2H

>  <PQ_SYMBOL>  (2170) 
Phe_24diF_5CO2H

>  <FULL_NAME>  (2170) 
(S)-5-(2-amino-2-carboxyethyl)-2,4-difluorobenzoic acid

>  <IUPAC_CONDENSED>  (2170) 
Phe(2,4-diF,5-CO2H)

>  <IUPAC>  (2170) 
5-((2S)-2-amino-3-hydroxy-3-oxopropyl)-2,4-difluorobenzene-1-carboxylic acid

>  <TYPE>  (2170) 
Backbone

>  <CLASS>  (2170) 
alpha

>  <ANALOG>  (2170) 
Phe

>  <MOL_WT>  (2170) 
245.18099999999995

>  <LOGP>  (2170) 
0.6174000000000001

>  <TPSA>  (2170) 
100.62000000000002

>  <POPULARITY>  (2170) 
2.3

>  <PROTECTED>  (2170) 
TRUE

>  <SMILES>  (2170) 
N[C@@H](Cc1(cc(C(=O)O)c(F)cc1F))C(=O)O

>  <INCHIKEY>  (2170) 
BMNQNSFRESQUQO-QMMMGPOBSA-N

$$$$
Phe_2Ac
     RDKit          2D

 15 15  0  0  0  0  0  0  0  0999 V2000
   -2.0511    1.9295    0.0000 N   0  0  0  0  0  0  0  0  0  0  0  0
   -2.0725    0.4296    0.0000 C   0  0  0  0  0  0  0  0  0  0  0  0
   -0.7843   -0.3388    0.0000 C   0  0  0  0  0  0  0  0  0  0  0  0
    0.5253    0.3925    0.0000 C   0  0  0  0  0  0  0  0  0  0  0  0
    0.5467    1.8924    0.0000 C   0  0  0  0  0  0  0  0  0  0  0  0
    1.8563    2.6238    0.0000 C   0  0  0  0  0  0  0  0  0  0  0  0
    3.1445    1.8553    0.0000 C   0  0  0  0  0  0  0  0  0  0  0  0
    3.1231    0.3555    0.0000 C   0  0  0  0  0  0  0  0  0  0  0  0
    1.8135   -0.3759    0.0000 C   0  0  0  0  0  0  0  0  0  0  0  0
    1.7921   -1.8758    0.0000 C   0  0  0  0  0  0  0  0  0  0  0  0
    0.4825   -2.6072    0.0000 O   0  0  0  0  0  0  0  0  0  0  0  0
    3.0803   -2.6442    0.0000 C   0  0  0  0  0  0  0  0  0  0  0  0
   -3.3821   -0.3018    0.0000 C   0  0  0  0  0  0  0  0  0  0  0  0
   -3.4036   -1.8016    0.0000 O   0  0  0  0  0  0  0  0  0  0  0  0
   -4.6704    0.4667    0.0000 O   0  0  0  0  0  0  0  0  0  0  0  0
  2  1  1  1
  2  3  1  0
  3  4  1  0
  4  5  2  0
  5  6  1  0
  6  7  2  0
  7  8  1  0
  8  9  2  0
  9 10  1  0
 10 11  2  0
 10 12  1  0
  2 13  1  0
 13 14  2  0
 13 15  1  0
  9  4  1  0
M  END
>  <rName>  (2171) 
Phe_2Ac

>  <PQ_SYMBOL>  (2171) 
Phe_2Ac

>  <FULL_NAME>  (2171) 
(S)-3-(2-acetylphenyl)-2-aminopropanoic acid

>  <IUPAC_CONDENSED>  (2171) 
Phe(2-Ac)

>  <IUPAC>  (2171) 
(2S)-3-(2-(acetyl)phenyl)-2-aminopropanoic acid

>  <TYPE>  (2171) 
Backbone

>  <CLASS>  (2171) 
alpha

>  <ANALOG>  (2171) 
Phe

>  <MOL_WT>  (2171) 
207.22899999999996

>  <LOGP>  (2171) 
0.8435999999999999

>  <TPSA>  (2171) 
80.39

>  <POPULARITY>  (2171) 
3.6

>  <PROTECTED>  (2171) 
TRUE

>  <SMILES>  (2171) 
N[C@@H](Cc1(ccccc1C(=O)C))C(=O)O

>  <INCHIKEY>  (2171) 
LOKIKMDXXPVODH-JTQLQIEISA-N

$$$$
Ala_pyrid2yl_3OMe
     RDKit          2D

 14 14  0  0  0  0  0  0  0  0999 V2000
   -1.9781    1.7869    0.0000 N   0  0  0  0  0  0  0  0  0  0  0  0
   -2.0323    0.2879    0.0000 C   0  0  0  0  0  0  0  0  0  0  0  0
   -0.7612   -0.5086    0.0000 C   0  0  0  0  0  0  0  0  0  0  0  0
    0.5641    0.1940    0.0000 C   0  0  0  0  0  0  0  0  0  0  0  0
    0.6183    1.6931    0.0000 N   0  0  0  0  0  0  0  0  0  0  0  0
    1.9435    2.3957    0.0000 C   0  0  0  0  0  0  0  0  0  0  0  0
    3.2146    1.5993    0.0000 C   0  0  0  0  0  0  0  0  0  0  0  0
    3.1605    0.1002    0.0000 C   0  0  0  0  0  0  0  0  0  0  0  0
    1.8352   -0.6024    0.0000 C   0  0  0  0  0  0  0  0  0  0  0  0
    1.7811   -2.1014    0.0000 O   0  0  0  0  0  0  0  0  0  0  0  0
    3.0522   -2.8978    0.0000 C   0  0  0  0  0  0  0  0  0  0  0  0
   -3.3575   -0.4148    0.0000 C   0  0  0  0  0  0  0  0  0  0  0  0
   -3.4117   -1.9138    0.0000 O   0  0  0  0  0  0  0  0  0  0  0  0
   -4.6287    0.3817    0.0000 O   0  0  0  0  0  0  0  0  0  0  0  0
  2  1  1  1
  2  3  1  0
  3  4  1  0
  4  5  2  0
  5  6  1  0
  6  7  2  0
  7  8  1  0
  8  9  2  0
  9 10  1  0
 10 11  1  0
  2 12  1  0
 12 13  2  0
 12 14  1  0
  9  4  1  0
M  END
>  <rName>  (2172) 
Ala_pyrid2yl_3OMe

>  <PQ_SYMBOL>  (2172) 
Ala_pyrid2yl_3OMe

>  <FULL_NAME>  (2172) 
(S)-2-amino-3-(3-methoxypyridin-2-yl)propanoic acid

>  <IUPAC_CONDENSED>  (2172) 
Ala(pyrid-2-yl(3-OMe))

>  <IUPAC>  (2172) 
(2S)-2-amino-3-(3-methoxypyridin-2-yl)propanoic acid

>  <TYPE>  (2172) 
Backbone

>  <CLASS>  (2172) 
alpha

>  <ANALOG>  (2172) 
Phe

>  <MOL_WT>  (2172) 
196.20599999999996

>  <LOGP>  (2172) 
0.044599999999999695

>  <TPSA>  (2172) 
85.44000000000001

>  <POPULARITY>  (2172) 
2.7

>  <PROTECTED>  (2172) 
TRUE

>  <SMILES>  (2172) 
N[C@@H](Cc1(ncccc1OC))C(=O)O

>  <INCHIKEY>  (2172) 
WTCMOJAUPHVFPZ-LURJTMIESA-N

$$$$
Phe_2F_3CN
     RDKit          2D

 15 15  0  0  0  0  0  0  0  0999 V2000
   -2.4994    1.6682    0.0000 N   0  0  0  0  0  0  0  0  0  0  0  0
   -2.5103    0.1683    0.0000 C   0  0  0  0  0  0  0  0  0  0  0  0
   -1.2168   -0.5912    0.0000 C   0  0  0  0  0  0  0  0  0  0  0  0
    0.0877    0.1494    0.0000 C   0  0  0  0  0  0  0  0  0  0  0  0
    0.0986    1.6493    0.0000 C   0  0  0  0  0  0  0  0  0  0  0  0
    1.4031    2.3899    0.0000 C   0  0  0  0  0  0  0  0  0  0  0  0
    2.6966    1.6304    0.0000 C   0  0  0  0  0  0  0  0  0  0  0  0
    2.6857    0.1305    0.0000 C   0  0  0  0  0  0  0  0  0  0  0  0
    3.9792   -0.6290    0.0000 C   0  0  0  0  0  0  0  0  0  0  0  0
    5.2728   -1.3884    0.0000 N   0  0  0  0  0  0  0  0  0  0  0  0
    1.3812   -0.6101    0.0000 C   0  0  0  0  0  0  0  0  0  0  0  0
    1.3703   -2.1100    0.0000 F   0  0  0  0  0  0  0  0  0  0  0  0
   -3.8148   -0.5723    0.0000 C   0  0  0  0  0  0  0  0  0  0  0  0
   -3.8257   -2.0722    0.0000 O   0  0  0  0  0  0  0  0  0  0  0  0
   -5.1083    0.1872    0.0000 O   0  0  0  0  0  0  0  0  0  0  0  0
  2  1  1  1
  2  3  1  0
  3  4  1  0
  4  5  2  0
  5  6  1  0
  6  7  2  0
  7  8  1  0
  8  9  1  0
  9 10  3  0
  8 11  2  0
 11 12  1  0
  2 13  1  0
 13 14  2  0
 13 15  1  0
 11  4  1  0
M  END
>  <rName>  (2173) 
Phe_2F_3CN

>  <PQ_SYMBOL>  (2173) 
Phe_2F_3CN

>  <FULL_NAME>  (2173) 
(S)-2-amino-3-(3-cyano-2-fluorophenyl)propanoic acid

>  <IUPAC_CONDENSED>  (2173) 
Phe(2-F,3-CN)

>  <IUPAC>  (2173) 
(2S)-2-amino-3-(2-fluoro-3-(nitrilomethyl)phenyl)propanoic acid

>  <TYPE>  (2173) 
Backbone

>  <CLASS>  (2173) 
alpha

>  <ANALOG>  (2173) 
Phe

>  <MOL_WT>  (2173) 
208.19199999999995

>  <LOGP>  (2173) 
0.6517800000000002

>  <TPSA>  (2173) 
87.11

>  <POPULARITY>  (2173) 
2.5

>  <PROTECTED>  (2173) 
TRUE

>  <SMILES>  (2173) 
N[C@@H](Cc1(cccc(C#N)c1F))C(=O)O

>  <INCHIKEY>  (2173) 
FBJWEPCTQWESIO-QMMMGPOBSA-N

$$$$
Phe_26diMe_4Cl
     RDKit          2D

 15 15  0  0  0  0  0  0  0  0999 V2000
   -1.7110    1.6830    0.0000 N   0  0  0  0  0  0  0  0  0  0  0  0
   -2.0873    0.2310    0.0000 C   0  0  0  0  0  0  0  0  0  0  0  0
   -1.0179   -0.8209    0.0000 C   0  0  0  0  0  0  0  0  0  0  0  0
    0.4277   -0.4208    0.0000 C   0  0  0  0  0  0  0  0  0  0  0  0
    0.8040    1.0313    0.0000 C   0  0  0  0  0  0  0  0  0  0  0  0
   -0.2654    2.0832    0.0000 C   0  0  0  0  0  0  0  0  0  0  0  0
    2.2497    1.4315    0.0000 C   0  0  0  0  0  0  0  0  0  0  0  0
    3.3190    0.3796    0.0000 C   0  0  0  0  0  0  0  0  0  0  0  0
    4.7647    0.7797    0.0000 Cl  0  0  0  0  0  0  0  0  0  0  0  0
    2.9428   -1.0725    0.0000 C   0  0  0  0  0  0  0  0  0  0  0  0
    1.4971   -1.4726    0.0000 C   0  0  0  0  0  0  0  0  0  0  0  0
    1.1209   -2.9247    0.0000 C   0  0  0  0  0  0  0  0  0  0  0  0
   -3.5329   -0.1692    0.0000 C   0  0  0  0  0  0  0  0  0  0  0  0
   -3.9092   -1.6212    0.0000 O   0  0  0  0  0  0  0  0  0  0  0  0
   -4.6023    0.8827    0.0000 O   0  0  0  0  0  0  0  0  0  0  0  0
  2  1  1  1
  2  3  1  0
  3  4  1  0
  4  5  2  0
  5  6  1  0
  5  7  1  0
  7  8  2  0
  8  9  1  0
  8 10  1  0
 10 11  2  0
 11 12  1  0
  2 13  1  0
 13 14  2  0
 13 15  1  0
 11  4  1  0
M  END
>  <rName>  (2174) 
Phe_26diMe_4Cl

>  <PQ_SYMBOL>  (2174) 
Phe_26diMe_4Cl

>  <FULL_NAME>  (2174) 
(S)-2-amino-3-(4-chloro-2,6-dimethylphenyl)propanoic acid

>  <IUPAC_CONDENSED>  (2174) 
Phe(2,6-diMe,4-Cl)

>  <IUPAC>  (2174) 
(2S)-2-amino-3-(4-chloro-2,6-dimethylphenyl)propanoic acid

>  <TYPE>  (2174) 
Backbone

>  <CLASS>  (2174) 
alpha

>  <ANALOG>  (2174) 
Phe

>  <MOL_WT>  (2174) 
227.69099999999997

>  <LOGP>  (2174) 
1.9112400000000003

>  <TPSA>  (2174) 
63.32000000000001

>  <POPULARITY>  (2174) 
2.6

>  <PROTECTED>  (2174) 
TRUE

>  <SMILES>  (2174) 
N[C@@H](Cc1(c(C)cc(Cl)cc1C))C(=O)O

>  <INCHIKEY>  (2174) 
DFQWQVBCIGVEKN-JTQLQIEISA-N

$$$$
Phe_2NH2_5Ac
     RDKit          2D

 16 16  0  0  0  0  0  0  0  0999 V2000
    1.4458   -1.7915    0.0000 N   0  0  0  0  0  0  0  0  0  0  0  0
    2.2696   -0.5380    0.0000 C   0  0  0  0  0  0  0  0  0  0  0  0
    1.5959    0.8022    0.0000 C   0  0  0  0  0  0  0  0  0  0  0  0
    0.0984    0.8889    0.0000 C   0  0  0  0  0  0  0  0  0  0  0  0
   -0.7254   -0.3646    0.0000 C   0  0  0  0  0  0  0  0  0  0  0  0
   -2.2229   -0.2780    0.0000 C   0  0  0  0  0  0  0  0  0  0  0  0
   -2.8966    1.0622    0.0000 C   0  0  0  0  0  0  0  0  0  0  0  0
   -2.0728    2.3158    0.0000 C   0  0  0  0  0  0  0  0  0  0  0  0
   -0.5753    2.2291    0.0000 C   0  0  0  0  0  0  0  0  0  0  0  0
    0.2485    3.4826    0.0000 N   0  0  0  0  0  0  0  0  0  0  0  0
   -3.0467   -1.5315    0.0000 C   0  0  0  0  0  0  0  0  0  0  0  0
   -2.3730   -2.8717    0.0000 O   0  0  0  0  0  0  0  0  0  0  0  0
   -4.5442   -1.4448    0.0000 C   0  0  0  0  0  0  0  0  0  0  0  0
    3.7671   -0.6247    0.0000 C   0  0  0  0  0  0  0  0  0  0  0  0
    4.5909    0.6289    0.0000 O   0  0  0  0  0  0  0  0  0  0  0  0
    4.4408   -1.9649    0.0000 O   0  0  0  0  0  0  0  0  0  0  0  0
  2  1  1  1
  2  3  1  0
  3  4  1  0
  4  5  1  0
  5  6  2  0
  6  7  1  0
  7  8  2  0
  8  9  1  0
  9 10  1  0
  6 11  1  0
 11 12  2  0
 11 13  1  0
  2 14  1  0
 14 15  2  0
 14 16  1  0
  9  4  2  0
M  END
>  <rName>  (2175) 
Phe_2NH2_5Ac

>  <PQ_SYMBOL>  (2175) 
Phe_2NH2_5Ac

>  <FULL_NAME>  (2175) 
(S)-3-(5-acetyl-2-aminophenyl)-2-aminopropanoic acid

>  <IUPAC_CONDENSED>  (2175) 
Phe(2-NH2,5-Ac)

>  <IUPAC>  (2175) 
(2S)-3-(5-(acetyl)-2-aminophenyl)-2-aminopropanoic acid

>  <TYPE>  (2175) 
Backbone

>  <CLASS>  (2175) 
alpha

>  <ANALOG>  (2175) 
Phe

>  <MOL_WT>  (2175) 
222.24399999999994

>  <LOGP>  (2175) 
0.4258

>  <TPSA>  (2175) 
106.41000000000001

>  <POPULARITY>  (2175) 
2.7

>  <PROTECTED>  (2175) 
TRUE

>  <SMILES>  (2175) 
N[C@@H](Cc1(cc(ccc1N)C(=O)C))C(=O)O

>  <INCHIKEY>  (2175) 
WRKGLUWMGNRNOT-JTQLQIEISA-N

$$$$
Ala_2Mebenzimidazolyl
     RDKit          2D

 16 17  0  0  0  0  0  0  0  0999 V2000
   -2.8524    1.6457    0.0000 N   0  0  0  0  0  0  0  0  0  0  0  0
   -3.0906    0.1647    0.0000 C   0  0  0  0  0  0  0  0  0  0  0  0
   -1.9271   -0.7821    0.0000 C   0  0  0  0  0  0  0  0  0  0  0  0
   -0.5254   -0.2478    0.0000 C   0  0  0  0  0  0  0  0  0  0  0  0
   -0.2873    1.2331    0.0000 C   0  0  0  0  0  0  0  0  0  0  0  0
    1.1144    1.7674    0.0000 C   0  0  0  0  0  0  0  0  0  0  0  0
    2.2779    0.8206    0.0000 C   0  0  0  0  0  0  0  0  0  0  0  0
    3.7599    1.0517    0.0000 N   0  0  0  0  0  0  0  0  0  0  0  0
    4.4377   -0.2864    0.0000 C   0  0  0  0  0  0  0  0  0  0  0  0
    5.9187   -0.5246    0.0000 C   0  0  0  0  0  0  0  0  0  0  0  0
    3.3746   -1.3445    0.0000 N   0  0  0  0  0  0  0  0  0  0  0  0
    2.0397   -0.6604    0.0000 C   0  0  0  0  0  0  0  0  0  0  0  0
    0.6380   -1.1946    0.0000 C   0  0  0  0  0  0  0  0  0  0  0  0
   -4.4922   -0.3695    0.0000 C   0  0  0  0  0  0  0  0  0  0  0  0
   -4.7304   -1.8505    0.0000 O   0  0  0  0  0  0  0  0  0  0  0  0
   -5.6557    0.5772    0.0000 O   0  0  0  0  0  0  0  0  0  0  0  0
  2  1  1  1
  2  3  1  0
  3  4  1  0
  4  5  1  0
  5  6  2  0
  6  7  1  0
  7  8  1  0
  8  9  1  0
  9 10  1  0
  9 11  2  0
 11 12  1  0
 12 13  1  0
  2 14  1  0
 14 15  2  0
 14 16  1  0
 12  7  2  0
 13  4  2  0
M  END
>  <rName>  (2176) 
Ala_2Mebenzimidazolyl

>  <PQ_SYMBOL>  (2176) 
Ala_2Mebenzimidazolyl

>  <FULL_NAME>  (2176) 
(S)-2-amino-3-(2-methyl-1H-benzo[d]imidazol-5-yl)propanoic acid

>  <IUPAC_CONDENSED>  (2176) 
Ala(2-Me-benzimidazolyl)

>  <IUPAC>  (2176) 
(2S)-2-amino-3-(2-methyl-1H-benzimidazol-5-yl)propanoic acid

>  <TYPE>  (2176) 
Backbone

>  <CLASS>  (2176) 
alpha

>  <ANALOG>  (2176) 
Phe

>  <MOL_WT>  (2176) 
219.24399999999997

>  <LOGP>  (2176) 
0.8257199999999998

>  <TPSA>  (2176) 
92.00000000000001

>  <POPULARITY>  (2176) 
3.6

>  <PROTECTED>  (2176) 
TRUE

>  <SMILES>  (2176) 
N[C@@H](Cc2(ccc1([nH]c(C)nc1c2)))C(=O)O

>  <INCHIKEY>  (2176) 
UQPFCVPREPFMNJ-QMMMGPOBSA-N

$$$$
Phe_4H2NBu
     RDKit          2D

 18 19  0  0  0  0  0  0  0  0999 V2000
   -3.6329    1.7094    0.0000 N   0  0  0  0  0  0  0  0  0  0  0  0
   -4.0179    0.2597    0.0000 C   0  0  0  0  0  0  0  0  0  0  0  0
   -2.9550   -0.7987    0.0000 C   0  0  0  0  0  0  0  0  0  0  0  0
   -1.5069   -0.4073    0.0000 C   0  0  0  0  0  0  0  0  0  0  0  0
   -1.1219    1.0424    0.0000 C   0  0  0  0  0  0  0  0  0  0  0  0
    0.3262    1.4338    0.0000 C   0  0  0  0  0  0  0  0  0  0  0  0
    1.3891    0.3755    0.0000 C   0  0  0  0  0  0  0  0  0  0  0  0
    1.0041   -1.0743    0.0000 C   0  0  0  0  0  0  0  0  0  0  0  0
   -0.4440   -1.4656    0.0000 C   0  0  0  0  0  0  0  0  0  0  0  0
    2.8372    0.7669    0.0000 N   0  0  0  0  0  0  0  0  0  0  0  0
    3.9002   -0.2915    0.0000 C   0  0  0  0  0  0  0  0  0  0  0  0
    3.5151   -1.7412    0.0000 O   0  0  0  0  0  0  0  0  0  0  0  0
    5.3482    0.0999    0.0000 C   0  0  0  0  0  0  0  0  0  0  0  0
    6.4065    1.1629    0.0000 C   0  0  0  0  0  0  0  0  0  0  0  0
    6.7979   -0.2852    0.0000 C   0  0  0  0  0  0  0  0  0  0  0  0
   -5.4660   -0.1317    0.0000 C   0  0  0  0  0  0  0  0  0  0  0  0
   -5.8510   -1.5815    0.0000 O   0  0  0  0  0  0  0  0  0  0  0  0
   -6.5289    0.9266    0.0000 O   0  0  0  0  0  0  0  0  0  0  0  0
  2  1  1  1
  2  3  1  0
  3  4  1  0
  4  5  1  0
  5  6  2  0
  6  7  1  0
  7  8  2  0
  8  9  1  0
  7 10  1  0
 10 11  1  0
 11 12  2  0
 11 13  1  0
 13 14  1  0
 14 15  1  0
  2 16  1  0
 16 17  2  0
 16 18  1  0
  9  4  2  0
 15 13  1  0
M  END
>  <rName>  (2177) 
Phe_4H2NBu

>  <PQ_SYMBOL>  (2177) 
Phe_4H2NBu

>  <FULL_NAME>  (2177) 
(S)-2-amino-3-(4-(cyclopropanecarboxamido)phenyl)propanoic acid

>  <IUPAC_CONDENSED>  (2177) 
Phe(4-H2NBu)

>  <IUPAC>  (2177) 
(2S)-2-amino-3-(4-cyclopropylcarbonylaminophenyl)propanoic acid

>  <TYPE>  (2177) 
Backbone

>  <CLASS>  (2177) 
alpha

>  <ANALOG>  (2177) 
Phe

>  <MOL_WT>  (2177) 
248.28199999999993

>  <LOGP>  (2177) 
0.9894999999999996

>  <TPSA>  (2177) 
92.42

>  <POPULARITY>  (2177) 
4.3

>  <PROTECTED>  (2177) 
TRUE

>  <SMILES>  (2177) 
N[C@@H](Cc1(ccc(cc1)NC(=O)C2(CC2)))C(=O)O

>  <INCHIKEY>  (2177) 
ANRRDOHWPYVPFU-NSHDSACASA-N

$$$$
4Pal_2F_5Me
     RDKit          2D

 14 14  0  0  0  0  0  0  0  0999 V2000
   -1.4552    1.7882    0.0000 N   0  0  0  0  0  0  0  0  0  0  0  0
   -1.9325    0.3661    0.0000 C   0  0  0  0  0  0  0  0  0  0  0  0
   -0.9397   -0.7583    0.0000 C   0  0  0  0  0  0  0  0  0  0  0  0
    0.5305   -0.4606    0.0000 C   0  0  0  0  0  0  0  0  0  0  0  0
    1.0078    0.9614    0.0000 C   0  0  0  0  0  0  0  0  0  0  0  0
    2.4780    1.2591    0.0000 C   0  0  0  0  0  0  0  0  0  0  0  0
    2.9553    2.6811    0.0000 F   0  0  0  0  0  0  0  0  0  0  0  0
    3.4709    0.1347    0.0000 N   0  0  0  0  0  0  0  0  0  0  0  0
    2.9935   -1.2874    0.0000 C   0  0  0  0  0  0  0  0  0  0  0  0
    1.5234   -1.5850    0.0000 C   0  0  0  0  0  0  0  0  0  0  0  0
    1.0461   -3.0070    0.0000 C   0  0  0  0  0  0  0  0  0  0  0  0
   -3.4027    0.0685    0.0000 C   0  0  0  0  0  0  0  0  0  0  0  0
   -3.8800   -1.3536    0.0000 O   0  0  0  0  0  0  0  0  0  0  0  0
   -4.3955    1.1929    0.0000 O   0  0  0  0  0  0  0  0  0  0  0  0
  2  1  1  1
  2  3  1  0
  3  4  1  0
  4  5  1  0
  5  6  2  0
  6  7  1  0
  6  8  1  0
  8  9  2  0
  9 10  1  0
 10 11  1  0
  2 12  1  0
 12 13  2  0
 12 14  1  0
 10  4  2  0
M  END
>  <rName>  (2178) 
4Pal_2F_5Me

>  <PQ_SYMBOL>  (2178) 
4Pal_2F_5Me

>  <FULL_NAME>  (2178) 
(S)-2-amino-3-(2-fluoro-5-methylpyridin-4-yl)propanoic acid

>  <IUPAC_CONDENSED>  (2178) 
4Pal(2-F,5-Me)

>  <IUPAC>  (2178) 
(2S)-2-amino-3-(2-fluoro-5-methylpyridin-4-yl)propanoic acid

>  <TYPE>  (2178) 
Backbone

>  <CLASS>  (2178) 
alpha

>  <ANALOG>  (2178) 
Phe

>  <MOL_WT>  (2178) 
198.19699999999997

>  <LOGP>  (2178) 
0.4835199999999999

>  <TPSA>  (2178) 
76.21

>  <POPULARITY>  (2178) 
2.4

>  <PROTECTED>  (2178) 
TRUE

>  <SMILES>  (2178) 
N[C@@H](Cc1(cc(F)ncc1C))C(=O)O

>  <INCHIKEY>  (2178) 
XDTUABHVVLMBMN-ZETCQYMHSA-N

$$$$
Phe_2Me_3NH2
     RDKit          2D

 14 14  0  0  0  0  0  0  0  0999 V2000
   -1.9599    1.7683    0.0000 N   0  0  0  0  0  0  0  0  0  0  0  0
   -2.1168    0.2766    0.0000 C   0  0  0  0  0  0  0  0  0  0  0  0
   -0.9034   -0.6052    0.0000 C   0  0  0  0  0  0  0  0  0  0  0  0
    0.4670    0.0047    0.0000 C   0  0  0  0  0  0  0  0  0  0  0  0
    0.6239    1.4965    0.0000 C   0  0  0  0  0  0  0  0  0  0  0  0
    1.9943    2.1065    0.0000 C   0  0  0  0  0  0  0  0  0  0  0  0
    3.2078    1.2247    0.0000 C   0  0  0  0  0  0  0  0  0  0  0  0
    3.0508   -0.2671    0.0000 C   0  0  0  0  0  0  0  0  0  0  0  0
    4.2643   -1.1489    0.0000 N   0  0  0  0  0  0  0  0  0  0  0  0
    1.6804   -0.8771    0.0000 C   0  0  0  0  0  0  0  0  0  0  0  0
    1.5235   -2.3688    0.0000 C   0  0  0  0  0  0  0  0  0  0  0  0
   -3.4872   -0.3334    0.0000 C   0  0  0  0  0  0  0  0  0  0  0  0
   -3.6441   -1.8252    0.0000 O   0  0  0  0  0  0  0  0  0  0  0  0
   -4.7006    0.5484    0.0000 O   0  0  0  0  0  0  0  0  0  0  0  0
  2  1  1  1
  2  3  1  0
  3  4  1  0
  4  5  2  0
  5  6  1  0
  6  7  2  0
  7  8  1  0
  8  9  1  0
  8 10  2  0
 10 11  1  0
  2 12  1  0
 12 13  2  0
 12 14  1  0
 10  4  1  0
M  END
>  <rName>  (2179) 
Phe_2Me_3NH2

>  <PQ_SYMBOL>  (2179) 
Phe_2Me_3NH2

>  <FULL_NAME>  (2179) 
(S)-2-amino-3-(3-amino-2-methylphenyl)propanoic acid

>  <IUPAC_CONDENSED>  (2179) 
Phe(2-Me,3-NH2)

>  <IUPAC>  (2179) 
(2S)-2-amino-3-(3-amino-2-methylphenyl)propanoic acid

>  <TYPE>  (2179) 
Backbone

>  <CLASS>  (2179) 
alpha

>  <ANALOG>  (2179) 
Phe

>  <MOL_WT>  (2179) 
194.23399999999998

>  <LOGP>  (2179) 
0.53162

>  <TPSA>  (2179) 
89.34

>  <POPULARITY>  (2179) 
4

>  <PROTECTED>  (2179) 
TRUE

>  <SMILES>  (2179) 
N[C@@H](Cc1(cccc(N)c1C))C(=O)O

>  <INCHIKEY>  (2179) 
SXTSGDAJEJBSNU-VIFPVBQESA-N

$$$$
3Pal_4Me_6F
     RDKit          2D

 14 14  0  0  0  0  0  0  0  0999 V2000
   -1.7174    1.8436    0.0000 N   0  0  0  0  0  0  0  0  0  0  0  0
   -2.1036    0.3942    0.0000 C   0  0  0  0  0  0  0  0  0  0  0  0
   -1.0414   -0.6650    0.0000 C   0  0  0  0  0  0  0  0  0  0  0  0
    0.4069   -0.2747    0.0000 C   0  0  0  0  0  0  0  0  0  0  0  0
    0.7931    1.1747    0.0000 C   0  0  0  0  0  0  0  0  0  0  0  0
    2.2415    1.5649    0.0000 N   0  0  0  0  0  0  0  0  0  0  0  0
    3.3036    0.5057    0.0000 C   0  0  0  0  0  0  0  0  0  0  0  0
    4.7520    0.8960    0.0000 F   0  0  0  0  0  0  0  0  0  0  0  0
    2.9174   -0.9437    0.0000 C   0  0  0  0  0  0  0  0  0  0  0  0
    1.4691   -1.3339    0.0000 C   0  0  0  0  0  0  0  0  0  0  0  0
    1.0829   -2.7834    0.0000 C   0  0  0  0  0  0  0  0  0  0  0  0
   -3.5519    0.0039    0.0000 C   0  0  0  0  0  0  0  0  0  0  0  0
   -3.9381   -1.4455    0.0000 O   0  0  0  0  0  0  0  0  0  0  0  0
   -4.6140    1.0631    0.0000 O   0  0  0  0  0  0  0  0  0  0  0  0
  2  1  1  1
  2  3  1  0
  3  4  1  0
  4  5  1  0
  5  6  2  0
  6  7  1  0
  7  8  1  0
  7  9  2  0
  9 10  1  0
 10 11  1  0
  2 12  1  0
 12 13  2  0
 12 14  1  0
 10  4  2  0
M  END
>  <rName>  (2180) 
3Pal_4Me_6F

>  <PQ_SYMBOL>  (2180) 
3Pal_4Me_6F

>  <FULL_NAME>  (2180) 
(S)-2-amino-3-(6-fluoro-4-methylpyridin-3-yl)propanoic acid

>  <IUPAC_CONDENSED>  (2180) 
3Pal(4-Me,6-F)

>  <IUPAC>  (2180) 
(2S)-2-amino-3-(6-fluoro-4-methylpyridin-3-yl)propanoic acid

>  <TYPE>  (2180) 
Backbone

>  <CLASS>  (2180) 
alpha

>  <ANALOG>  (2180) 
Phe

>  <MOL_WT>  (2180) 
198.19699999999997

>  <LOGP>  (2180) 
0.4835199999999999

>  <TPSA>  (2180) 
76.21

>  <POPULARITY>  (2180) 
2.5

>  <PROTECTED>  (2180) 
TRUE

>  <SMILES>  (2180) 
N[C@@H](Cc1(cnc(F)cc1C))C(=O)O

>  <INCHIKEY>  (2180) 
SVTDNBYIJVNHDP-ZETCQYMHSA-N

$$$$
Phe_4cHex_4Spentyl
     RDKit          2D

 23 24  0  0  0  0  0  0  0  0999 V2000
   -5.4826    1.6024    0.0000 N   0  0  0  0  0  0  0  0  0  0  0  0
   -5.9769    0.1862    0.0000 C   0  0  0  0  0  0  0  0  0  0  0  0
   -4.9975   -0.9500    0.0000 C   0  0  0  0  0  0  0  0  0  0  0  0
   -3.5239   -0.6698    0.0000 C   0  0  0  0  0  0  0  0  0  0  0  0
   -3.0296    0.7464    0.0000 C   0  0  0  0  0  0  0  0  0  0  0  0
   -1.5560    1.0265    0.0000 C   0  0  0  0  0  0  0  0  0  0  0  0
   -0.5766   -0.1096    0.0000 C   0  0  0  0  0  0  0  0  0  0  0  0
   -1.0709   -1.5259    0.0000 C   0  0  0  0  0  0  0  0  0  0  0  0
   -2.5445   -1.8060    0.0000 C   0  0  0  0  0  0  0  0  0  0  0  0
    0.8970    0.1705    0.0000 C   0  0  0  0  0  0  0  0  0  0  0  0
    1.8764   -0.9656    0.0000 C   0  0  0  0  0  0  0  0  0  0  0  0
    3.3500   -0.6855    0.0000 C   0  0  0  0  0  0  0  0  0  0  0  0
    3.8442    0.7307    0.0000 C   0  0  0  0  0  0  0  0  0  0  0  0
    5.3178    1.0109    0.0000 C   0  0  0  0  0  0  0  0  0  0  0  0
    6.2972   -0.1253    0.0000 C   0  0  0  0  0  0  0  0  0  0  0  0
    7.7708    0.1548    0.0000 C   0  0  0  0  0  0  0  0  0  0  0  0
    8.7502   -0.9813    0.0000 C   0  0  0  0  0  0  0  0  0  0  0  0
   10.2238   -0.7012    0.0000 C   0  0  0  0  0  0  0  0  0  0  0  0
    2.8648    1.8669    0.0000 C   0  0  0  0  0  0  0  0  0  0  0  0
    1.3912    1.5867    0.0000 C   0  0  0  0  0  0  0  0  0  0  0  0
   -7.4505   -0.0939    0.0000 C   0  0  0  0  0  0  0  0  0  0  0  0
   -7.9447   -1.5102    0.0000 O   0  0  0  0  0  0  0  0  0  0  0  0
   -8.4299    1.0422    0.0000 O   0  0  0  0  0  0  0  0  0  0  0  0
  2  1  1  1
  2  3  1  0
  3  4  1  0
  4  5  1  0
  5  6  2  0
  6  7  1  0
  7  8  2  0
  8  9  1  0
 10  7  1  1
 10 11  1  0
 11 12  1  0
 12 13  1  0
 13 14  1  6
 14 15  1  0
 15 16  1  0
 16 17  1  0
 17 18  1  0
 13 19  1  0
 19 20  1  0
  2 21  1  0
 21 22  2  0
 21 23  1  0
  9  4  2  0
 20 10  1  0
M  END
>  <rName>  (2181) 
Phe_4cHex_4Spentyl

>  <PQ_SYMBOL>  (2181) 
Phe_4cHex_4Spentyl

>  <FULL_NAME>  (2181) 
(S)-2-amino-3-(4-((1s,4S)-4-pentylcyclohexyl)phenyl)propanoic acid

>  <IUPAC_CONDENSED>  (2181) 
Phe(4-cHex(4S-pentyl))

>  <IUPAC>  (2181) 
(2S)-2-amino-3-(4-(trans-4-pentylcyclohexyl)phenyl)propanoic acid

>  <TYPE>  (2181) 
Backbone

>  <CLASS>  (2181) 
alpha

>  <ANALOG>  (2181) 
Phe

>  <MOL_WT>  (2181) 
317.473

>  <LOGP>  (2181) 
4.495100000000003

>  <TPSA>  (2181) 
63.32000000000001

>  <POPULARITY>  (2181) 
2.4

>  <PROTECTED>  (2181) 
TRUE

>  <SMILES>  (2181) 
N[C@@H](Cc1(ccc(cc1)[C@@H]2(CC[C@@H](CCCCC)CC2)))C(=O)O

>  <INCHIKEY>  (2181) 
BORGFFOURUXTBP-IEZWGBDMSA-N

$$$$
Phe_4cHex_4pentyl
     RDKit          2D

 23 24  0  0  0  0  0  0  0  0999 V2000
   -5.4826    1.6024    0.0000 N   0  0  0  0  0  0  0  0  0  0  0  0
   -5.9769    0.1862    0.0000 C   0  0  0  0  0  0  0  0  0  0  0  0
   -4.9975   -0.9500    0.0000 C   0  0  0  0  0  0  0  0  0  0  0  0
   -3.5239   -0.6698    0.0000 C   0  0  0  0  0  0  0  0  0  0  0  0
   -3.0296    0.7464    0.0000 C   0  0  0  0  0  0  0  0  0  0  0  0
   -1.5560    1.0265    0.0000 C   0  0  0  0  0  0  0  0  0  0  0  0
   -0.5766   -0.1096    0.0000 C   0  0  0  0  0  0  0  0  0  0  0  0
   -1.0709   -1.5259    0.0000 C   0  0  0  0  0  0  0  0  0  0  0  0
   -2.5445   -1.8060    0.0000 C   0  0  0  0  0  0  0  0  0  0  0  0
    0.8970    0.1705    0.0000 C   0  0  0  0  0  0  0  0  0  0  0  0
    1.8764   -0.9656    0.0000 C   0  0  0  0  0  0  0  0  0  0  0  0
    3.3500   -0.6855    0.0000 C   0  0  0  0  0  0  0  0  0  0  0  0
    3.8442    0.7307    0.0000 C   0  0  0  0  0  0  0  0  0  0  0  0
    5.3178    1.0109    0.0000 C   0  0  0  0  0  0  0  0  0  0  0  0
    6.2972   -0.1253    0.0000 C   0  0  0  0  0  0  0  0  0  0  0  0
    7.7708    0.1548    0.0000 C   0  0  0  0  0  0  0  0  0  0  0  0
    8.7502   -0.9813    0.0000 C   0  0  0  0  0  0  0  0  0  0  0  0
   10.2238   -0.7012    0.0000 C   0  0  0  0  0  0  0  0  0  0  0  0
    2.8648    1.8669    0.0000 C   0  0  0  0  0  0  0  0  0  0  0  0
    1.3912    1.5867    0.0000 C   0  0  0  0  0  0  0  0  0  0  0  0
   -7.4505   -0.0939    0.0000 C   0  0  0  0  0  0  0  0  0  0  0  0
   -7.9447   -1.5102    0.0000 O   0  0  0  0  0  0  0  0  0  0  0  0
   -8.4299    1.0422    0.0000 O   0  0  0  0  0  0  0  0  0  0  0  0
  2  1  1  1
  2  3  1  0
  3  4  1  0
  4  5  1  0
  5  6  2  0
  6  7  1  0
  7  8  2  0
  8  9  1  0
  7 10  1  0
 10 11  1  0
 11 12  1  0
 12 13  1  0
 13 14  1  0
 14 15  1  0
 15 16  1  0
 16 17  1  0
 17 18  1  0
 13 19  1  0
 19 20  1  0
  2 21  1  0
 21 22  2  0
 21 23  1  0
  9  4  2  0
 20 10  1  0
M  END
>  <rName>  (2182) 
Phe_4cHex_4pentyl

>  <PQ_SYMBOL>  (2182) 
Phe_4cHex_4pentyl

>  <FULL_NAME>  (2182) 
(S)-2-amino-3-(4-(4-pentylcyclohexyl)phenyl)propanoic acid

>  <IUPAC_CONDENSED>  (2182) 
Phe(4-cHex(4-pentyl))

>  <IUPAC>  (2182) 
(2S)-2-amino-3-(4-(4-pentylcyclohexyl)phenyl)propanoic acid

>  <TYPE>  (2182) 
Backbone

>  <CLASS>  (2182) 
alpha

>  <ANALOG>  (2182) 
Phe

>  <MOL_WT>  (2182) 
317.473

>  <LOGP>  (2182) 
4.495100000000003

>  <TPSA>  (2182) 
63.32000000000001

>  <POPULARITY>  (2182) 
3

>  <PROTECTED>  (2182) 
TRUE

>  <SMILES>  (2182) 
N[C@@H](Cc1(ccc(cc1)C2(CCC(CCCCC)CC2)))C(=O)O

>  <INCHIKEY>  (2182) 
BORGFFOURUXTBP-KVWWFHCMSA-N

$$$$
3Pal_2Me_6F
     RDKit          2D

 14 14  0  0  0  0  0  0  0  0999 V2000
   -1.7174    1.8436    0.0000 N   0  0  0  0  0  0  0  0  0  0  0  0
   -2.1036    0.3942    0.0000 C   0  0  0  0  0  0  0  0  0  0  0  0
   -1.0414   -0.6650    0.0000 C   0  0  0  0  0  0  0  0  0  0  0  0
    0.4069   -0.2747    0.0000 C   0  0  0  0  0  0  0  0  0  0  0  0
    0.7931    1.1747    0.0000 C   0  0  0  0  0  0  0  0  0  0  0  0
    2.2415    1.5649    0.0000 C   0  0  0  0  0  0  0  0  0  0  0  0
    3.3036    0.5057    0.0000 C   0  0  0  0  0  0  0  0  0  0  0  0
    4.7520    0.8960    0.0000 F   0  0  0  0  0  0  0  0  0  0  0  0
    2.9174   -0.9437    0.0000 N   0  0  0  0  0  0  0  0  0  0  0  0
    1.4691   -1.3339    0.0000 C   0  0  0  0  0  0  0  0  0  0  0  0
    1.0829   -2.7834    0.0000 C   0  0  0  0  0  0  0  0  0  0  0  0
   -3.5519    0.0039    0.0000 C   0  0  0  0  0  0  0  0  0  0  0  0
   -3.9381   -1.4455    0.0000 O   0  0  0  0  0  0  0  0  0  0  0  0
   -4.6140    1.0631    0.0000 O   0  0  0  0  0  0  0  0  0  0  0  0
  2  1  1  1
  2  3  1  0
  3  4  1  0
  4  5  1  0
  5  6  2  0
  6  7  1  0
  7  8  1  0
  7  9  2  0
  9 10  1  0
 10 11  1  0
  2 12  1  0
 12 13  2  0
 12 14  1  0
 10  4  2  0
M  END
>  <rName>  (2183) 
3Pal_2Me_6F

>  <PQ_SYMBOL>  (2183) 
3Pal_2Me_6F

>  <FULL_NAME>  (2183) 
(S)-2-amino-3-(6-fluoro-2-methylpyridin-3-yl)propanoic acid

>  <IUPAC_CONDENSED>  (2183) 
3Pal(2-Me,6-F)

>  <IUPAC>  (2183) 
(2S)-2-amino-3-(6-fluoro-2-methylpyridin-3-yl)propanoic acid

>  <TYPE>  (2183) 
Backbone

>  <CLASS>  (2183) 
alpha

>  <ANALOG>  (2183) 
Phe

>  <MOL_WT>  (2183) 
198.19699999999997

>  <LOGP>  (2183) 
0.4835199999999999

>  <TPSA>  (2183) 
76.21

>  <POPULARITY>  (2183) 
2.4

>  <PROTECTED>  (2183) 
TRUE

>  <SMILES>  (2183) 
N[C@@H](Cc1(ccc(F)nc1C))C(=O)O

>  <INCHIKEY>  (2183) 
XNAWFZLBPKWJPO-ZETCQYMHSA-N

$$$$
Ala_pyrid2yl_3F
     RDKit          2D

 13 13  0  0  0  0  0  0  0  0999 V2000
   -1.4864    1.8099    0.0000 N   0  0  0  0  0  0  0  0  0  0  0  0
   -1.7669    0.3364    0.0000 C   0  0  0  0  0  0  0  0  0  0  0  0
   -0.6311   -0.6433    0.0000 C   0  0  0  0  0  0  0  0  0  0  0  0
    0.7853   -0.1495    0.0000 C   0  0  0  0  0  0  0  0  0  0  0  0
    1.0658    1.3241    0.0000 N   0  0  0  0  0  0  0  0  0  0  0  0
    2.4822    1.8179    0.0000 C   0  0  0  0  0  0  0  0  0  0  0  0
    3.6181    0.8382    0.0000 C   0  0  0  0  0  0  0  0  0  0  0  0
    3.3376   -0.6353    0.0000 C   0  0  0  0  0  0  0  0  0  0  0  0
    1.9212   -1.1292    0.0000 C   0  0  0  0  0  0  0  0  0  0  0  0
    1.6407   -2.6027    0.0000 F   0  0  0  0  0  0  0  0  0  0  0  0
   -3.1833   -0.1575    0.0000 C   0  0  0  0  0  0  0  0  0  0  0  0
   -3.4638   -1.6310    0.0000 O   0  0  0  0  0  0  0  0  0  0  0  0
   -4.3192    0.8222    0.0000 O   0  0  0  0  0  0  0  0  0  0  0  0
  2  1  1  1
  2  3  1  0
  3  4  1  0
  4  5  2  0
  5  6  1  0
  6  7  2  0
  7  8  1  0
  8  9  2  0
  9 10  1  0
  2 11  1  0
 11 12  2  0
 11 13  1  0
  9  4  1  0
M  END
>  <rName>  (2184) 
Ala_pyrid2yl_3F

>  <PQ_SYMBOL>  (2184) 
Ala_pyrid2yl_3F

>  <FULL_NAME>  (2184) 
(S)-2-amino-3-(3-fluoropyridin-2-yl)propanoic acid

>  <IUPAC_CONDENSED>  (2184) 
Ala(pyrid-2-yl(3-F))

>  <IUPAC>  (2184) 
(2S)-2-amino-3-(3-fluoropyridin-2-yl)propanoic acid

>  <TYPE>  (2184) 
Backbone

>  <CLASS>  (2184) 
alpha

>  <ANALOG>  (2184) 
Phe

>  <MOL_WT>  (2184) 
184.16999999999996

>  <LOGP>  (2184) 
0.17509999999999953

>  <TPSA>  (2184) 
76.21

>  <POPULARITY>  (2184) 
3.3

>  <PROTECTED>  (2184) 
TRUE

>  <SMILES>  (2184) 
N[C@@H](Cc1(ncccc1F))C(=O)O

>  <INCHIKEY>  (2184) 
NKPHSFPWSMDVDY-LURJTMIESA-N

$$$$
Ala_pyrazol3yl_5Me
     RDKit          2D

 12 12  0  0  0  0  0  0  0  0999 V2000
   -1.4659    1.6962    0.0000 N   0  0  0  0  0  0  0  0  0  0  0  0
   -1.7460    0.2226    0.0000 C   0  0  0  0  0  0  0  0  0  0  0  0
   -0.6098   -0.7568    0.0000 C   0  0  0  0  0  0  0  0  0  0  0  0
    0.8064   -0.2625    0.0000 C   0  0  0  0  0  0  0  0  0  0  0  0
    2.0387   -1.1177    0.0000 C   0  0  0  0  0  0  0  0  0  0  0  0
    3.2329   -0.2100    0.0000 C   0  0  0  0  0  0  0  0  0  0  0  0
    4.6692   -0.6425    0.0000 C   0  0  0  0  0  0  0  0  0  0  0  0
    2.7386    1.2062    0.0000 N   0  0  0  0  0  0  0  0  0  0  0  0
    1.2389    1.1738    0.0000 N   0  0  0  0  0  0  0  0  0  0  0  0
   -3.1622   -0.2717    0.0000 C   0  0  0  0  0  0  0  0  0  0  0  0
   -3.4423   -1.7453    0.0000 O   0  0  0  0  0  0  0  0  0  0  0  0
   -4.2984    0.7077    0.0000 O   0  0  0  0  0  0  0  0  0  0  0  0
  2  1  1  1
  2  3  1  0
  3  4  1  0
  4  5  1  0
  5  6  2  0
  6  7  1  0
  6  8  1  0
  8  9  1  0
  2 10  1  0
 10 11  2  0
 10 12  1  0
  9  4  2  0
M  END
>  <rName>  (2185) 
Ala_pyrazol3yl_5Me

>  <PQ_SYMBOL>  (2185) 
Ala_pyrazol3yl_5Me

>  <FULL_NAME>  (2185) 
(S)-2-amino-3-(5-methyl-1H-pyrazol-3-yl)propanoic acid

>  <IUPAC_CONDENSED>  (2185) 
Ala(pyrazol-3-yl(5-Me))

>  <IUPAC>  (2185) 
(2S)-2-amino-3-(5-methyl-1H-pyrazol-3-yl)propanoic acid

>  <TYPE>  (2185) 
Backbone

>  <CLASS>  (2185) 
alpha

>  <ANALOG>  (2185) 
Phe

>  <MOL_WT>  (2185) 
169.184

>  <LOGP>  (2185) 
-0.32748000000000027

>  <TPSA>  (2185) 
92.00000000000001

>  <POPULARITY>  (2185) 
3.7

>  <PROTECTED>  (2185) 
TRUE

>  <SMILES>  (2185) 
N[C@@H](Cc1(cc(C)[nH]n1))C(=O)O

>  <INCHIKEY>  (2185) 
QPSXLWSNJRSDBV-LURJTMIESA-N

$$$$
His_5Me
     RDKit          2D

 12 12  0  0  0  0  0  0  0  0999 V2000
    1.3420    1.7952    0.0000 N   0  0  0  0  0  0  0  0  0  0  0  0
    1.5471    0.3093    0.0000 C   0  0  0  0  0  0  0  0  0  0  0  0
    0.3629   -0.6113    0.0000 C   0  0  0  0  0  0  0  0  0  0  0  0
   -1.0265   -0.0460    0.0000 C   0  0  0  0  0  0  0  0  0  0  0  0
   -1.3859    1.4103    0.0000 N   0  0  0  0  0  0  0  0  0  0  0  0
   -2.8819    1.5186    0.0000 C   0  0  0  0  0  0  0  0  0  0  0  0
   -3.4473    0.1292    0.0000 N   0  0  0  0  0  0  0  0  0  0  0  0
   -2.3005   -0.8378    0.0000 C   0  0  0  0  0  0  0  0  0  0  0  0
   -2.4088   -2.3339    0.0000 C   0  0  0  0  0  0  0  0  0  0  0  0
    2.9365   -0.2560    0.0000 C   0  0  0  0  0  0  0  0  0  0  0  0
    3.1417   -1.7420    0.0000 O   0  0  0  0  0  0  0  0  0  0  0  0
    4.1208    0.6646    0.0000 O   0  0  0  0  0  0  0  0  0  0  0  0
  2  1  1  6
  2  3  1  0
  3  4  1  0
  4  5  1  0
  5  6  1  0
  6  7  2  0
  7  8  1  0
  8  9  1  0
  2 10  1  0
 10 11  2  0
 10 12  1  0
  8  4  2  0
M  END
>  <rName>  (2186) 
His_5Me

>  <PQ_SYMBOL>  (2186) 
His_5Me

>  <FULL_NAME>  (2186) 
(S)-2-amino-3-(4-methyl-1H-imidazol-5-yl)propanoic acid

>  <IUPAC_CONDENSED>  (2186) 
His(5-Me)

>  <IUPAC>  (2186) 
(2S)-2-amino-3-(4-methyl-1H-imidazol-5-yl)propanoic acid

>  <TYPE>  (2186) 
Backbone

>  <CLASS>  (2186) 
alpha

>  <ANALOG>  (2186) 
His

>  <MOL_WT>  (2186) 
169.184

>  <LOGP>  (2186) 
-0.3274800000000007

>  <TPSA>  (2186) 
92.00000000000001

>  <POPULARITY>  (2186) 
7.1

>  <PROTECTED>  (2186) 
TRUE

>  <SMILES>  (2186) 
N[C@@H](Cc1([nH]cnc1C))C(=O)O

>  <INCHIKEY>  (2186) 
UAFOEWLJICDDGE-YFKPBYRVSA-N

$$$$
Phe_2CH2CN
     RDKit          2D

 15 15  0  0  0  0  0  0  0  0999 V2000
   -2.6418    1.5136    0.0000 N   0  0  0  0  0  0  0  0  0  0  0  0
   -2.3809    0.0364    0.0000 C   0  0  0  0  0  0  0  0  0  0  0  0
   -0.9712   -0.4762    0.0000 C   0  0  0  0  0  0  0  0  0  0  0  0
    0.1776    0.4883    0.0000 C   0  0  0  0  0  0  0  0  0  0  0  0
   -0.0833    1.9655    0.0000 C   0  0  0  0  0  0  0  0  0  0  0  0
    1.0654    2.9300    0.0000 C   0  0  0  0  0  0  0  0  0  0  0  0
    2.4751    2.4174    0.0000 C   0  0  0  0  0  0  0  0  0  0  0  0
    2.7360    0.9402    0.0000 C   0  0  0  0  0  0  0  0  0  0  0  0
    1.5873   -0.0243    0.0000 C   0  0  0  0  0  0  0  0  0  0  0  0
    1.8482   -1.5014    0.0000 C   0  0  0  0  0  0  0  0  0  0  0  0
    3.2579   -2.0140    0.0000 C   0  0  0  0  0  0  0  0  0  0  0  0
    4.6676   -2.5266    0.0000 N   0  0  0  0  0  0  0  0  0  0  0  0
   -3.5297   -0.9281    0.0000 C   0  0  0  0  0  0  0  0  0  0  0  0
   -3.2688   -2.4052    0.0000 O   0  0  0  0  0  0  0  0  0  0  0  0
   -4.9394   -0.4155    0.0000 O   0  0  0  0  0  0  0  0  0  0  0  0
  2  1  1  1
  2  3  1  0
  3  4  1  0
  4  5  2  0
  5  6  1  0
  6  7  2  0
  7  8  1  0
  8  9  2  0
  9 10  1  0
 10 11  1  0
 11 12  3  0
  2 13  1  0
 13 14  2  0
 13 15  1  0
  9  4  1  0
M  END
>  <rName>  (2187) 
Phe_2CH2CN

>  <PQ_SYMBOL>  (2187) 
Phe_2CH2CN

>  <FULL_NAME>  (2187) 
(S)-2-amino-3-(2-(cyanomethyl)phenyl)propanoic acid

>  <IUPAC_CONDENSED>  (2187) 
Phe(2-CH2CN)

>  <IUPAC>  (2187) 
(2S)-2-amino-3-(2-(2-nitriloethyl)phenyl)propanoic acid

>  <TYPE>  (2187) 
Backbone

>  <CLASS>  (2187) 
alpha

>  <ANALOG>  (2187) 
Phe

>  <MOL_WT>  (2187) 
204.22899999999996

>  <LOGP>  (2187) 
0.7070800000000002

>  <TPSA>  (2187) 
87.11

>  <POPULARITY>  (2187) 
2.7

>  <PROTECTED>  (2187) 
TRUE

>  <SMILES>  (2187) 
N[C@@H](Cc1(ccccc1CC#N))C(=O)O

>  <INCHIKEY>  (2187) 
DHSDSTJTOQZLPX-JTQLQIEISA-N

$$$$
Phe_3EtO2H
     RDKit          2D

 16 16  0  0  0  0  0  0  0  0999 V2000
   -3.1121    1.4434    0.0000 N   0  0  0  0  0  0  0  0  0  0  0  0
   -2.8725   -0.0373    0.0000 C   0  0  0  0  0  0  0  0  0  0  0  0
   -1.4704   -0.5702    0.0000 C   0  0  0  0  0  0  0  0  0  0  0  0
   -0.3078    0.3776    0.0000 C   0  0  0  0  0  0  0  0  0  0  0  0
   -0.5473    1.8583    0.0000 C   0  0  0  0  0  0  0  0  0  0  0  0
    0.6153    2.8061    0.0000 C   0  0  0  0  0  0  0  0  0  0  0  0
    2.0174    2.2732    0.0000 C   0  0  0  0  0  0  0  0  0  0  0  0
    2.2569    0.7924    0.0000 C   0  0  0  0  0  0  0  0  0  0  0  0
    1.0943   -0.1554    0.0000 C   0  0  0  0  0  0  0  0  0  0  0  0
    3.6591    0.2595    0.0000 C   0  0  0  0  0  0  0  0  0  0  0  0
    3.8986   -1.2212    0.0000 C   0  0  0  0  0  0  0  0  0  0  0  0
    2.7360   -2.1691    0.0000 O   0  0  0  0  0  0  0  0  0  0  0  0
    5.3007   -1.7542    0.0000 O   0  0  0  0  0  0  0  0  0  0  0  0
   -4.0352   -0.9851    0.0000 C   0  0  0  0  0  0  0  0  0  0  0  0
   -3.7956   -2.4659    0.0000 O   0  0  0  0  0  0  0  0  0  0  0  0
   -5.4373   -0.4522    0.0000 O   0  0  0  0  0  0  0  0  0  0  0  0
  2  1  1  1
  2  3  1  0
  3  4  1  0
  4  5  2  0
  5  6  1  0
  6  7  2  0
  7  8  1  0
  8  9  2  0
  8 10  1  0
 10 11  1  0
 11 12  2  0
 11 13  1  0
  2 14  1  0
 14 15  2  0
 14 16  1  0
  9  4  1  0
M  END
>  <rName>  (2188) 
Phe_3EtO2H

>  <PQ_SYMBOL>  (2188) 
Phe_3EtO2H

>  <FULL_NAME>  (2188) 
(S)-2-amino-3-(3-(carboxymethyl)phenyl)propanoic acid

>  <IUPAC_CONDENSED>  (2188) 
Phe(3-EtO2H)

>  <IUPAC>  (2188) 
(2S)-2-amino-3-(3-(2-hydroxy-2-oxoethyl)phenyl)propanoic acid

>  <TYPE>  (2188) 
Backbone

>  <CLASS>  (2188) 
alpha

>  <ANALOG>  (2188) 
Phe

>  <MOL_WT>  (2188) 
223.22799999999995

>  <LOGP>  (2188) 
0.26809999999999967

>  <TPSA>  (2188) 
100.62000000000002

>  <POPULARITY>  (2188) 
3.7

>  <PROTECTED>  (2188) 
TRUE

>  <SMILES>  (2188) 
N[C@@H](Cc1(cccc(c1)CC(=O)O))C(=O)O

>  <INCHIKEY>  (2188) 
VZHJWCSHMMYFJH-VIFPVBQESA-N

$$$$
2-amino-Ac5c_1R_2S
     RDKit          2D

  9  9  0  0  0  0  0  0  0  0999 V2000
   -0.5115   -2.3139    0.0000 N   0  0  0  0  0  0  0  0  0  0  0  0
   -0.8624   -0.8555    0.0000 C   0  0  0  0  0  0  0  0  0  0  0  0
    0.1113    0.2855    0.0000 C   0  0  0  0  0  0  0  0  0  0  0  0
   -0.6730    1.5641    0.0000 C   0  0  0  0  0  0  0  0  0  0  0  0
   -2.1314    1.2133    0.0000 C   0  0  0  0  0  0  0  0  0  0  0  0
   -2.2485   -0.2821    0.0000 C   0  0  0  0  0  0  0  0  0  0  0  0
    1.6067    0.1685    0.0000 C   0  0  0  0  0  0  0  0  0  0  0  0
    2.4558    1.4051    0.0000 O   0  0  0  0  0  0  0  0  0  0  0  0
    2.2531   -1.1851    0.0000 O   0  0  0  0  0  0  0  0  0  0  0  0
  2  1  1  1
  2  3  1  0
  3  4  1  0
  4  5  1  0
  5  6  1  0
  3  7  1  1
  7  8  2  0
  7  9  1  0
  6  2  1  0
M  END
>  <rName>  (2189) 
2-amino-Ac5c_1R_2S

>  <PQ_SYMBOL>  (2189) 
2-amino-Ac5c_1R_2S

>  <FULL_NAME>  (2189) 
(1R,2S)-2-aminocyclopentane-1-carboxylic acid

>  <IUPAC_CONDENSED>  (2189) 
2-amino-Ac5c(1R,2S)

>  <IUPAC>  (2189) 
(1R,2S)-2-aminocyclopentanecarboxylic acid

>  <TYPE>  (2189) 
Backbone

>  <CLASS>  (2189) 
beta

>  <ANALOG>  (2189) 
Val

>  <MOL_WT>  (2189) 
129.15900000000002

>  <LOGP>  (2189) 
0.19839999999999985

>  <TPSA>  (2189) 
63.32000000000001

>  <POPULARITY>  (2189) 
9.1

>  <PROTECTED>  (2189) 
TRUE

>  <SMILES>  (2189) 
N[C@@H]1[C@@H](CCC1)C(=O)O

>  <INCHIKEY>  (2189) 
JWYOAMOZLZXDER-UHNVWZDZSA-N

$$$$
Phe_3EtOH
     RDKit          2D

 15 16  0  0  0  0  0  0  0  0999 V2000
    2.3960   -1.7012    0.0000 N   0  0  0  0  0  0  0  0  0  0  0  0
    2.3823   -0.2013    0.0000 C   0  0  0  0  0  0  0  0  0  0  0  0
    1.0765    0.5368    0.0000 C   0  0  0  0  0  0  0  0  0  0  0  0
   -0.2156   -0.2250    0.0000 C   0  0  0  0  0  0  0  0  0  0  0  0
   -0.2020   -1.7249    0.0000 C   0  0  0  0  0  0  0  0  0  0  0  0
   -1.4941   -2.4867    0.0000 C   0  0  0  0  0  0  0  0  0  0  0  0
   -2.7999   -1.7486    0.0000 C   0  0  0  0  0  0  0  0  0  0  0  0
   -2.8136   -0.2486    0.0000 C   0  0  0  0  0  0  0  0  0  0  0  0
   -3.9374    0.7448    0.0000 C   0  0  0  0  0  0  0  0  0  0  0  0
   -3.3398    2.1207    0.0000 C   0  0  0  0  0  0  0  0  0  0  0  0
   -1.8467    1.9775    0.0000 O   0  0  0  0  0  0  0  0  0  0  0  0
   -1.5214    0.5132    0.0000 C   0  0  0  0  0  0  0  0  0  0  0  0
    3.6745    0.5605    0.0000 C   0  0  0  0  0  0  0  0  0  0  0  0
    3.6608    2.0605    0.0000 O   0  0  0  0  0  0  0  0  0  0  0  0
    4.9803   -0.1776    0.0000 O   0  0  0  0  0  0  0  0  0  0  0  0
  2  1  1  1
  2  3  1  0
  3  4  1  0
  4  5  2  0
  5  6  1  0
  6  7  2  0
  7  8  1  0
  8  9  1  0
  9 10  1  0
 10 11  1  0
 11 12  1  0
  2 13  1  0
 13 14  2  0
 13 15  1  0
 12  4  1  0
 12  8  2  0
M  END
>  <rName>  (2190) 
Phe_3EtOH

>  <PQ_SYMBOL>  (2190) 
Phe_3EtOH

>  <FULL_NAME>  (2190) 
(S)-2-amino-3-(2,3-dihydrobenzofuran-7-yl)propanoic acid

>  <IUPAC_CONDENSED>  (2190) 
Phe(3-EtOH)

>  <IUPAC>  (2190) 
(2S)-2-amino-3-(7-oxabicyclo[4.3.0]nona-1(6),2,4-trien-5-yl)propanoic acid

>  <TYPE>  (2190) 
Backbone

>  <CLASS>  (2190) 
alpha

>  <ANALOG>  (2190) 
Tyr

>  <MOL_WT>  (2190) 
207.22899999999996

>  <LOGP>  (2190) 
0.5759000000000003

>  <TPSA>  (2190) 
72.55

>  <POPULARITY>  (2190) 
3.1

>  <PROTECTED>  (2190) 
TRUE

>  <SMILES>  (2190) 
N[C@@H](Cc1(cccc2(CCOc12)))C(=O)O

>  <INCHIKEY>  (2190) 
HURFZLPNHSWPAK-VIFPVBQESA-N

$$$$
aMePip
     RDKit          2D

 10 10  0  0  0  0  0  0  0  0999 V2000
    0.8118   -1.4296    0.0000 N   0  0  0  0  0  0  0  0  0  0  0  0
   -0.2419   -0.3621    0.0000 C   0  0  0  0  0  0  0  0  0  0  0  0
   -1.1103   -1.5851    0.0000 C   0  0  0  0  0  0  0  0  0  0  0  0
    0.1558    1.0843    0.0000 C   0  0  0  0  0  0  0  0  0  0  0  0
    1.6072    1.4630    0.0000 C   0  0  0  0  0  0  0  0  0  0  0  0
    2.6609    0.3955    0.0000 C   0  0  0  0  0  0  0  0  0  0  0  0
    2.2632   -1.0509    0.0000 C   0  0  0  0  0  0  0  0  0  0  0  0
   -1.5972    0.2807    0.0000 C   0  0  0  0  0  0  0  0  0  0  0  0
   -2.8315   -0.5716    0.0000 O   0  0  0  0  0  0  0  0  0  0  0  0
   -1.7181    1.7758    0.0000 O   0  0  0  0  0  0  0  0  0  0  0  0
  1  2  1  0
  2  3  1  1
  2  4  1  0
  4  5  1  0
  5  6  1  0
  6  7  1  0
  2  8  1  0
  8  9  2  0
  8 10  1  0
  7  1  1  0
M  END
>  <rName>  (2191) 
aMePip

>  <PQ_SYMBOL>  (2191) 
aMePip

>  <FULL_NAME>  (2191) 
(S)-2-methylpiperidine-2-carboxylic acid

>  <IUPAC_CONDENSED>  (2191) 
aMePip

>  <IUPAC>  (2191) 
(2S)-2-methylpiperidine-2-carboxylic acid

>  <TYPE>  (2191) 
Backbone

>  <CLASS>  (2191) 
alpha

>  <ANALOG>  (2191) 
Pro

>  <MOL_WT>  (2191) 
143.186

>  <LOGP>  (2191) 
0.6032

>  <TPSA>  (2191) 
49.33

>  <POPULARITY>  (2191) 
7.4

>  <PROTECTED>  (2191) 
TRUE

>  <SMILES>  (2191) 
N1[C@@](C)(CCCC1)C(=O)O

>  <INCHIKEY>  (2191) 
GLNOAERYNWZGJY-ZETCQYMHSA-N

$$$$
Phe_2CO2H_5NO2
     RDKit          2D

 18 18  0  0  0  0  0  0  0  0999 V2000
    1.2062   -2.3415    0.0000 N   0  0  0  0  0  0  0  0  0  0  0  0
    2.1185   -1.1508    0.0000 C   0  0  0  0  0  0  0  0  0  0  0  0
    1.5435    0.2346    0.0000 C   0  0  0  0  0  0  0  0  0  0  0  0
    0.0562    0.4293    0.0000 C   0  0  0  0  0  0  0  0  0  0  0  0
   -0.8561   -0.7613    0.0000 C   0  0  0  0  0  0  0  0  0  0  0  0
   -2.3434   -0.5666    0.0000 C   0  0  0  0  0  0  0  0  0  0  0  0
   -2.9184    0.8189    0.0000 C   0  0  0  0  0  0  0  0  0  0  0  0
   -2.0061    2.0095    0.0000 C   0  0  0  0  0  0  0  0  0  0  0  0
   -0.5188    1.8148    0.0000 C   0  0  0  0  0  0  0  0  0  0  0  0
    0.3936    3.0054    0.0000 C   0  0  0  0  0  0  0  0  0  0  0  0
    1.8809    2.8107    0.0000 O   0  0  0  0  0  0  0  0  0  0  0  0
   -0.1814    4.3909    0.0000 O   0  0  0  0  0  0  0  0  0  0  0  0
   -3.2557   -1.7572    0.0000 N   0  0  0  0  0  0  0  0  0  0  0  0
   -2.6807   -3.1426    0.0000 O   0  0  0  0  0  0  0  0  0  0  0  0
   -4.7430   -1.5624    0.0000 O   0  0  0  0  0  0  0  0  0  0  0  0
    3.6058   -1.3456    0.0000 C   0  0  0  0  0  0  0  0  0  0  0  0
    4.5181   -0.1549    0.0000 O   0  0  0  0  0  0  0  0  0  0  0  0
    4.1808   -2.7310    0.0000 O   0  0  0  0  0  0  0  0  0  0  0  0
  2  1  1  1
  2  3  1  0
  3  4  1  0
  4  5  1  0
  5  6  2  0
  6  7  1  0
  7  8  2  0
  8  9  1  0
  9 10  1  0
 10 11  2  0
 10 12  1  0
  6 13  1  0
 13 14  2  0
 13 15  1  0
  2 16  1  0
 16 17  2  0
 16 18  1  0
  9  4  2  0
M  CHG  2  13   1  15  -1
M  END
>  <rName>  (2192) 
Phe_2CO2H_5NO2

>  <PQ_SYMBOL>  (2192) 
Phe_2CO2H_5NO2

>  <FULL_NAME>  (2192) 
(S)-2-(2-amino-2-carboxyethyl)-4-nitrobenzoic acid

>  <IUPAC_CONDENSED>  (2192) 
Phe(2-CO2H,5-NO2)

>  <IUPAC>  (2192) 
2-((2S)-2-amino-3-hydroxy-3-oxopropyl)-4-nitrobenzene-1-carboxylic acid

>  <TYPE>  (2192) 
Backbone

>  <CLASS>  (2192) 
alpha

>  <ANALOG>  (2192) 
Phe

>  <MOL_WT>  (2192) 
254.19799999999995

>  <LOGP>  (2192) 
0.24739999999999973

>  <TPSA>  (2192) 
143.76

>  <POPULARITY>  (2192) 
2.3

>  <PROTECTED>  (2192) 
TRUE

>  <SMILES>  (2192) 
N[C@@H](Cc1(cc(ccc1C(=O)O)[N+](=O)[O-]))C(=O)O

>  <INCHIKEY>  (2192) 
FPRNBVJGEOEJLY-QMMMGPOBSA-N

$$$$
Ala_pyrazol3yl_5tBu
     RDKit          2D

 15 15  0  0  0  0  0  0  0  0999 V2000
   -2.6077    1.6922    0.0000 N   0  0  0  0  0  0  0  0  0  0  0  0
   -2.7940    0.2038    0.0000 C   0  0  0  0  0  0  0  0  0  0  0  0
   -1.5983   -0.7018    0.0000 C   0  0  0  0  0  0  0  0  0  0  0  0
   -0.2161   -0.1190    0.0000 C   0  0  0  0  0  0  0  0  0  0  0  0
    1.0678   -0.8947    0.0000 C   0  0  0  0  0  0  0  0  0  0  0  0
    2.2022    0.0867    0.0000 C   0  0  0  0  0  0  0  0  0  0  0  0
    1.6194    1.4688    0.0000 N   0  0  0  0  0  0  0  0  0  0  0  0
    0.1248    1.3417    0.0000 N   0  0  0  0  0  0  0  0  0  0  0  0
    3.6630   -0.2543    0.0000 C   0  0  0  0  0  0  0  0  0  0  0  0
    3.3220   -1.7150    0.0000 C   0  0  0  0  0  0  0  0  0  0  0  0
    4.0039    1.2065    0.0000 C   0  0  0  0  0  0  0  0  0  0  0  0
    5.1237   -0.5952    0.0000 C   0  0  0  0  0  0  0  0  0  0  0  0
   -4.1762   -0.3790    0.0000 C   0  0  0  0  0  0  0  0  0  0  0  0
   -4.3626   -1.8674    0.0000 O   0  0  0  0  0  0  0  0  0  0  0  0
   -5.3720    0.5266    0.0000 O   0  0  0  0  0  0  0  0  0  0  0  0
  2  1  1  1
  2  3  1  0
  3  4  1  0
  4  5  1  0
  5  6  2  0
  6  7  1  0
  7  8  1  0
  6  9  1  0
  9 10  1  0
  9 11  1  0
  9 12  1  0
  2 13  1  0
 13 14  2  0
 13 15  1  0
  8  4  2  0
M  END
>  <rName>  (2193) 
Ala_pyrazol3yl_5tBu

>  <PQ_SYMBOL>  (2193) 
Ala_pyrazol3yl_5tBu

>  <FULL_NAME>  (2193) 
(S)-2-amino-3-(5-(tert-butyl)-1H-pyrazol-3-yl)propanoic acid

>  <IUPAC_CONDENSED>  (2193) 
Ala(pyrazol-3-yl(5-tBu))

>  <IUPAC>  (2193) 
(2S)-2-amino-3-(5-(tert-butyl)-1H-pyrazol-3-yl)propanoic acid

>  <TYPE>  (2193) 
Backbone

>  <CLASS>  (2193) 
alpha

>  <ANALOG>  (2193) 
Phe

>  <MOL_WT>  (2193) 
211.265

>  <LOGP>  (2193) 
0.6615999999999993

>  <TPSA>  (2193) 
92.00000000000001

>  <POPULARITY>  (2193) 
2.2

>  <PROTECTED>  (2193) 
TRUE

>  <SMILES>  (2193) 
N[C@@H](Cc1(cc([nH]n1)C(C)(C)C))C(=O)O

>  <INCHIKEY>  (2193) 
BKWNHQDGCGAXBB-ZETCQYMHSA-N

$$$$
Phe_3CF3_4CO2H
     RDKit          2D

 19 19  0  0  0  0  0  0  0  0999 V2000
   -3.3281    1.7221    0.0000 N   0  0  0  0  0  0  0  0  0  0  0  0
   -3.5612    0.2403    0.0000 C   0  0  0  0  0  0  0  0  0  0  0  0
   -2.3944   -0.7024    0.0000 C   0  0  0  0  0  0  0  0  0  0  0  0
   -0.9946   -0.1633    0.0000 C   0  0  0  0  0  0  0  0  0  0  0  0
   -0.7616    1.3185    0.0000 C   0  0  0  0  0  0  0  0  0  0  0  0
    0.6382    1.8576    0.0000 C   0  0  0  0  0  0  0  0  0  0  0  0
    1.8049    0.9149    0.0000 C   0  0  0  0  0  0  0  0  0  0  0  0
    3.2047    1.4540    0.0000 C   0  0  0  0  0  0  0  0  0  0  0  0
    3.4377    2.9358    0.0000 O   0  0  0  0  0  0  0  0  0  0  0  0
    4.3715    0.5113    0.0000 O   0  0  0  0  0  0  0  0  0  0  0  0
    1.5719   -0.5669    0.0000 C   0  0  0  0  0  0  0  0  0  0  0  0
    0.1721   -1.1060    0.0000 C   0  0  0  0  0  0  0  0  0  0  0  0
    2.7387   -1.5096    0.0000 C   0  0  0  0  0  0  0  0  0  0  0  0
    3.9054   -2.4523    0.0000 F   0  0  0  0  0  0  0  0  0  0  0  0
    1.7960   -2.6763    0.0000 F   0  0  0  0  0  0  0  0  0  0  0  0
    3.6814   -0.3428    0.0000 F   0  0  0  0  0  0  0  0  0  0  0  0
   -4.9609   -0.2988    0.0000 C   0  0  0  0  0  0  0  0  0  0  0  0
   -5.1940   -1.7805    0.0000 O   0  0  0  0  0  0  0  0  0  0  0  0
   -6.1277    0.6439    0.0000 O   0  0  0  0  0  0  0  0  0  0  0  0
  2  1  1  1
  2  3  1  0
  3  4  1  0
  4  5  1  0
  5  6  2  0
  6  7  1  0
  7  8  1  0
  8  9  2  0
  8 10  1  0
  7 11  2  0
 11 12  1  0
 11 13  1  0
 13 14  1  0
 13 15  1  0
 13 16  1  0
  2 17  1  0
 17 18  2  0
 17 19  1  0
 12  4  2  0
M  END
>  <rName>  (2194) 
Phe_3CF3_4CO2H

>  <PQ_SYMBOL>  (2194) 
Phe_3CF3_4CO2H

>  <FULL_NAME>  (2194) 
(S)-4-(2-amino-2-carboxyethyl)-2-(trifluoromethyl)benzoic acid

>  <IUPAC_CONDENSED>  (2194) 
Phe(3-CF3,4-CO2H)

>  <IUPAC>  (2194) 
4-((2S)-2-amino-3-hydroxy-3-oxopropyl)-2-(trifluoromethyl)benzoic acid

>  <TYPE>  (2194) 
Backbone

>  <CLASS>  (2194) 
alpha

>  <ANALOG>  (2194) 
Phe

>  <MOL_WT>  (2194) 
277.198

>  <LOGP>  (2194) 
1.3580000000000003

>  <TPSA>  (2194) 
100.62000000000002

>  <POPULARITY>  (2194) 
2.2

>  <PROTECTED>  (2194) 
TRUE

>  <SMILES>  (2194) 
N[C@@H](Cc1(ccc(C(=O)O)c(c1)C(F)(F)F))C(=O)O

>  <INCHIKEY>  (2194) 
SCVJJUSINHSUGA-QMMMGPOBSA-N

$$$$
Phe_3Cl_4CO2H
     RDKit          2D

 16 16  0  0  0  0  0  0  0  0999 V2000
   -2.5421    1.7204    0.0000 N   0  0  0  0  0  0  0  0  0  0  0  0
   -2.9632    0.2807    0.0000 C   0  0  0  0  0  0  0  0  0  0  0  0
   -1.9270   -0.8038    0.0000 C   0  0  0  0  0  0  0  0  0  0  0  0
   -0.4696   -0.4487    0.0000 C   0  0  0  0  0  0  0  0  0  0  0  0
   -0.0485    0.9910    0.0000 C   0  0  0  0  0  0  0  0  0  0  0  0
    1.4089    1.3461    0.0000 C   0  0  0  0  0  0  0  0  0  0  0  0
    2.4451    0.2616    0.0000 C   0  0  0  0  0  0  0  0  0  0  0  0
    3.9024    0.6167    0.0000 C   0  0  0  0  0  0  0  0  0  0  0  0
    4.3236    2.0564    0.0000 O   0  0  0  0  0  0  0  0  0  0  0  0
    4.9387   -0.4678    0.0000 O   0  0  0  0  0  0  0  0  0  0  0  0
    2.0240   -1.1781    0.0000 C   0  0  0  0  0  0  0  0  0  0  0  0
    3.0602   -2.2626    0.0000 Cl  0  0  0  0  0  0  0  0  0  0  0  0
    0.5666   -1.5332    0.0000 C   0  0  0  0  0  0  0  0  0  0  0  0
   -4.4206   -0.0744    0.0000 C   0  0  0  0  0  0  0  0  0  0  0  0
   -4.8417   -1.5141    0.0000 O   0  0  0  0  0  0  0  0  0  0  0  0
   -5.4568    1.0101    0.0000 O   0  0  0  0  0  0  0  0  0  0  0  0
  2  1  1  1
  2  3  1  0
  3  4  1  0
  4  5  1  0
  5  6  2  0
  6  7  1  0
  7  8  1  0
  8  9  2  0
  8 10  1  0
  7 11  2  0
 11 12  1  0
 11 13  1  0
  2 14  1  0
 14 15  2  0
 14 16  1  0
 13  4  2  0
M  END
>  <rName>  (2195) 
Phe_3Cl_4CO2H

>  <PQ_SYMBOL>  (2195) 
Phe_3Cl_4CO2H

>  <FULL_NAME>  (2195) 
(S)-4-(2-amino-2-carboxyethyl)-2-chlorobenzoic acid

>  <IUPAC_CONDENSED>  (2195) 
Phe(3-Cl,4-CO2H)

>  <IUPAC>  (2195) 
4-((2S)-2-amino-3-hydroxy-3-oxopropyl)-2-chlorobenzene-1-carboxylic acid

>  <TYPE>  (2195) 
Backbone

>  <CLASS>  (2195) 
alpha

>  <ANALOG>  (2195) 
Phe

>  <MOL_WT>  (2195) 
243.646

>  <LOGP>  (2195) 
0.9926000000000001

>  <TPSA>  (2195) 
100.62000000000002

>  <POPULARITY>  (2195) 
2.6

>  <PROTECTED>  (2195) 
TRUE

>  <SMILES>  (2195) 
N[C@@H](Cc1(ccc(C(=O)O)c(Cl)c1))C(=O)O

>  <INCHIKEY>  (2195) 
KRIXMTLJHPVGIF-QMMMGPOBSA-N

$$$$
Phe_2CO2H_4NH2
     RDKit          2D

 16 16  0  0  0  0  0  0  0  0999 V2000
   -2.0264    2.1084    0.0000 N   0  0  0  0  0  0  0  0  0  0  0  0
   -2.2807    0.6301    0.0000 C   0  0  0  0  0  0  0  0  0  0  0  0
   -1.1276   -0.3292    0.0000 C   0  0  0  0  0  0  0  0  0  0  0  0
    0.2798    0.1897    0.0000 C   0  0  0  0  0  0  0  0  0  0  0  0
    0.5340    1.6680    0.0000 C   0  0  0  0  0  0  0  0  0  0  0  0
    1.9414    2.1869    0.0000 C   0  0  0  0  0  0  0  0  0  0  0  0
    3.0945    1.2276    0.0000 C   0  0  0  0  0  0  0  0  0  0  0  0
    4.5019    1.7465    0.0000 N   0  0  0  0  0  0  0  0  0  0  0  0
    2.8403   -0.2507    0.0000 C   0  0  0  0  0  0  0  0  0  0  0  0
    1.4329   -0.7697    0.0000 C   0  0  0  0  0  0  0  0  0  0  0  0
    1.1786   -2.2479    0.0000 C   0  0  0  0  0  0  0  0  0  0  0  0
   -0.2288   -2.7669    0.0000 O   0  0  0  0  0  0  0  0  0  0  0  0
    2.3317   -3.2073    0.0000 O   0  0  0  0  0  0  0  0  0  0  0  0
   -3.6881    0.1112    0.0000 C   0  0  0  0  0  0  0  0  0  0  0  0
   -3.9423   -1.3671    0.0000 O   0  0  0  0  0  0  0  0  0  0  0  0
   -4.8412    1.0705    0.0000 O   0  0  0  0  0  0  0  0  0  0  0  0
  2  1  1  1
  2  3  1  0
  3  4  1  0
  4  5  1  0
  5  6  2  0
  6  7  1  0
  7  8  1  0
  7  9  2  0
  9 10  1  0
 10 11  1  0
 11 12  2  0
 11 13  1  0
  2 14  1  0
 14 15  2  0
 14 16  1  0
 10  4  2  0
M  END
>  <rName>  (2196) 
Phe_2CO2H_4NH2

>  <PQ_SYMBOL>  (2196) 
Phe_2CO2H_4NH2

>  <FULL_NAME>  (2196) 
(S)-5-amino-2-(2-amino-2-carboxyethyl)benzoic acid

>  <IUPAC_CONDENSED>  (2196) 
Phe(2-CO2H,4-NH2)

>  <IUPAC>  (2196) 
5-amino-2-((2S)-2-amino-3-hydroxy-3-oxopropyl)benzoic acid

>  <TYPE>  (2196) 
Backbone

>  <CLASS>  (2196) 
alpha

>  <ANALOG>  (2196) 
Phe

>  <MOL_WT>  (2196) 
224.21599999999998

>  <LOGP>  (2196) 
-0.07860000000000034

>  <TPSA>  (2196) 
126.64

>  <POPULARITY>  (2196) 
2.6

>  <PROTECTED>  (2196) 
TRUE

>  <SMILES>  (2196) 
N[C@@H](Cc1(ccc(N)cc1C(=O)O))C(=O)O

>  <INCHIKEY>  (2196) 
AXBQHRKYYHHTSS-QMMMGPOBSA-N

$$$$
Phe_3CF3_4F
     RDKit          2D

 17 17  0  0  0  0  0  0  0  0999 V2000
   -3.0426    1.6364    0.0000 N   0  0  0  0  0  0  0  0  0  0  0  0
   -3.1302    0.1389    0.0000 C   0  0  0  0  0  0  0  0  0  0  0  0
   -1.8772   -0.6857    0.0000 C   0  0  0  0  0  0  0  0  0  0  0  0
   -0.5366   -0.0128    0.0000 C   0  0  0  0  0  0  0  0  0  0  0  0
   -0.4490    1.4846    0.0000 C   0  0  0  0  0  0  0  0  0  0  0  0
    0.8917    2.1575    0.0000 C   0  0  0  0  0  0  0  0  0  0  0  0
    2.1447    1.3329    0.0000 C   0  0  0  0  0  0  0  0  0  0  0  0
    3.4853    2.0058    0.0000 F   0  0  0  0  0  0  0  0  0  0  0  0
    2.0571   -0.1645    0.0000 C   0  0  0  0  0  0  0  0  0  0  0  0
    0.7165   -0.8374    0.0000 C   0  0  0  0  0  0  0  0  0  0  0  0
    3.3101   -0.9891    0.0000 C   0  0  0  0  0  0  0  0  0  0  0  0
    4.5631   -1.8137    0.0000 F   0  0  0  0  0  0  0  0  0  0  0  0
    2.4855   -2.2421    0.0000 F   0  0  0  0  0  0  0  0  0  0  0  0
    4.1347    0.2639    0.0000 F   0  0  0  0  0  0  0  0  0  0  0  0
   -4.4708   -0.5339    0.0000 C   0  0  0  0  0  0  0  0  0  0  0  0
   -4.5584   -2.0314    0.0000 O   0  0  0  0  0  0  0  0  0  0  0  0
   -5.7238    0.2906    0.0000 O   0  0  0  0  0  0  0  0  0  0  0  0
  2  1  1  1
  2  3  1  0
  3  4  1  0
  4  5  1  0
  5  6  2  0
  6  7  1  0
  7  8  1  0
  7  9  2  0
  9 10  1  0
  9 11  1  0
 11 12  1  0
 11 13  1  0
 11 14  1  0
  2 15  1  0
 15 16  2  0
 15 17  1  0
 10  4  2  0
M  END
>  <rName>  (2197) 
Phe_3CF3_4F

>  <PQ_SYMBOL>  (2197) 
Phe_3CF3_4F

>  <FULL_NAME>  (2197) 
(S)-2-amino-3-(4-fluoro-3-(trifluoromethyl)phenyl)propanoic acid

>  <IUPAC_CONDENSED>  (2197) 
Phe(3-CF3,4-F)

>  <IUPAC>  (2197) 
(2S)-2-amino-3-(4-fluoro-3-(trifluoromethyl)phenyl)propanoic acid

>  <TYPE>  (2197) 
Backbone

>  <CLASS>  (2197) 
alpha

>  <ANALOG>  (2197) 
Phe

>  <MOL_WT>  (2197) 
251.17899999999995

>  <LOGP>  (2197) 
1.7989000000000002

>  <TPSA>  (2197) 
63.32000000000001

>  <POPULARITY>  (2197) 
2.8

>  <PROTECTED>  (2197) 
TRUE

>  <SMILES>  (2197) 
N[C@@H](Cc1(ccc(F)c(c1)C(F)(F)F))C(=O)O

>  <INCHIKEY>  (2197) 
JKURDBSSRLCLKP-QMMMGPOBSA-N

$$$$
Phe_2Me_3Cl
     RDKit          2D

 14 14  0  0  0  0  0  0  0  0999 V2000
   -1.9599    1.7683    0.0000 N   0  0  0  0  0  0  0  0  0  0  0  0
   -2.1168    0.2766    0.0000 C   0  0  0  0  0  0  0  0  0  0  0  0
   -0.9034   -0.6052    0.0000 C   0  0  0  0  0  0  0  0  0  0  0  0
    0.4670    0.0047    0.0000 C   0  0  0  0  0  0  0  0  0  0  0  0
    0.6239    1.4965    0.0000 C   0  0  0  0  0  0  0  0  0  0  0  0
    1.9943    2.1065    0.0000 C   0  0  0  0  0  0  0  0  0  0  0  0
    3.2078    1.2247    0.0000 C   0  0  0  0  0  0  0  0  0  0  0  0
    3.0508   -0.2671    0.0000 C   0  0  0  0  0  0  0  0  0  0  0  0
    4.2643   -1.1489    0.0000 Cl  0  0  0  0  0  0  0  0  0  0  0  0
    1.6804   -0.8771    0.0000 C   0  0  0  0  0  0  0  0  0  0  0  0
    1.5235   -2.3688    0.0000 C   0  0  0  0  0  0  0  0  0  0  0  0
   -3.4872   -0.3334    0.0000 C   0  0  0  0  0  0  0  0  0  0  0  0
   -3.6441   -1.8252    0.0000 O   0  0  0  0  0  0  0  0  0  0  0  0
   -4.7006    0.5484    0.0000 O   0  0  0  0  0  0  0  0  0  0  0  0
  2  1  1  1
  2  3  1  0
  3  4  1  0
  4  5  2  0
  5  6  1  0
  6  7  2  0
  7  8  1  0
  8  9  1  0
  8 10  2  0
 10 11  1  0
  2 12  1  0
 12 13  2  0
 12 14  1  0
 10  4  1  0
M  END
>  <rName>  (2198) 
Phe_2Me_3Cl

>  <PQ_SYMBOL>  (2198) 
Phe_2Me_3Cl

>  <FULL_NAME>  (2198) 
(S)-2-amino-3-(3-chloro-2-methylphenyl)propanoic acid

>  <IUPAC_CONDENSED>  (2198) 
Phe(2-Me,3-Cl)

>  <IUPAC>  (2198) 
(2S)-2-amino-3-(3-chloro-2-methylphenyl)propanoic acid

>  <TYPE>  (2198) 
Backbone

>  <CLASS>  (2198) 
alpha

>  <ANALOG>  (2198) 
Phe

>  <MOL_WT>  (2198) 
213.66399999999996

>  <LOGP>  (2198) 
1.6028200000000001

>  <TPSA>  (2198) 
63.32000000000001

>  <POPULARITY>  (2198) 
3.5

>  <PROTECTED>  (2198) 
TRUE

>  <SMILES>  (2198) 
N[C@@H](Cc1(cccc(Cl)c1C))C(=O)O

>  <INCHIKEY>  (2198) 
WTRMMPQFCOJINO-VIFPVBQESA-N

$$$$
Ala_2oxotetrahydroquinolinyl
     RDKit          2D

 17 18  0  0  0  0  0  0  0  0999 V2000
   -3.0886    1.6988    0.0000 N   0  0  0  0  0  0  0  0  0  0  0  0
   -3.3834    0.2280    0.0000 C   0  0  0  0  0  0  0  0  0  0  0  0
   -2.2570   -0.7626    0.0000 C   0  0  0  0  0  0  0  0  0  0  0  0
   -0.8359   -0.2824    0.0000 C   0  0  0  0  0  0  0  0  0  0  0  0
   -0.5412    1.1883    0.0000 C   0  0  0  0  0  0  0  0  0  0  0  0
    0.8799    1.6685    0.0000 C   0  0  0  0  0  0  0  0  0  0  0  0
    2.0062    0.6778    0.0000 C   0  0  0  0  0  0  0  0  0  0  0  0
    3.4273    1.1580    0.0000 N   0  0  0  0  0  0  0  0  0  0  0  0
    4.5537    0.1674    0.0000 C   0  0  0  0  0  0  0  0  0  0  0  0
    5.9747    0.6475    0.0000 O   0  0  0  0  0  0  0  0  0  0  0  0
    4.2589   -1.3034    0.0000 C   0  0  0  0  0  0  0  0  0  0  0  0
    2.8379   -1.7835    0.0000 C   0  0  0  0  0  0  0  0  0  0  0  0
    1.7115   -0.7929    0.0000 C   0  0  0  0  0  0  0  0  0  0  0  0
    0.2904   -1.2731    0.0000 C   0  0  0  0  0  0  0  0  0  0  0  0
   -4.8044   -0.2521    0.0000 C   0  0  0  0  0  0  0  0  0  0  0  0
   -5.0992   -1.7229    0.0000 O   0  0  0  0  0  0  0  0  0  0  0  0
   -5.9308    0.7385    0.0000 O   0  0  0  0  0  0  0  0  0  0  0  0
  2  1  1  1
  2  3  1  0
  3  4  1  0
  4  5  1  0
  5  6  2  0
  6  7  1  0
  7  8  1  0
  8  9  1  0
  9 10  2  0
  9 11  1  0
 11 12  1  0
 12 13  1  0
 13 14  1  0
  2 15  1  0
 15 16  2  0
 15 17  1  0
 13  7  2  0
 14  4  2  0
M  END
>  <rName>  (2199) 
Ala_2oxotetrahydroquinolinyl

>  <PQ_SYMBOL>  (2199) 
Ala_2oxotetrahydroquinolinyl

>  <FULL_NAME>  (2199) 
(S)-2-amino-3-(2-oxo-1,2,3,4-tetrahydroquinolin-6-yl)propanoic acid

>  <IUPAC_CONDENSED>  (2199) 
Ala(2-oxo-tetrahydroquinolinyl)

>  <IUPAC>  (2199) 
(2S)-2-amino-3-(3-oxo-2-azabicyclo[4.4.0]deca-1(10),6,8-trien-8-yl)propanoic acid

>  <TYPE>  (2199) 
Backbone

>  <CLASS>  (2199) 
alpha

>  <ANALOG>  (2199) 
Phe

>  <MOL_WT>  (2199) 
234.25499999999994

>  <LOGP>  (2199) 
0.5256999999999996

>  <TPSA>  (2199) 
92.42

>  <POPULARITY>  (2199) 
2.8

>  <PROTECTED>  (2199) 
TRUE

>  <SMILES>  (2199) 
N[C@@H](Cc2(ccc1(NC(=O)CCc1c2)))C(=O)O

>  <INCHIKEY>  (2199) 
DVHWRQBRWMYQRZ-VIFPVBQESA-N

$$$$
Phe_2NH2_4Me
     RDKit          2D

 14 14  0  0  0  0  0  0  0  0999 V2000
   -1.7174    1.8436    0.0000 N   0  0  0  0  0  0  0  0  0  0  0  0
   -2.1036    0.3942    0.0000 C   0  0  0  0  0  0  0  0  0  0  0  0
   -1.0414   -0.6650    0.0000 C   0  0  0  0  0  0  0  0  0  0  0  0
    0.4069   -0.2747    0.0000 C   0  0  0  0  0  0  0  0  0  0  0  0
    0.7931    1.1747    0.0000 C   0  0  0  0  0  0  0  0  0  0  0  0
    2.2415    1.5649    0.0000 C   0  0  0  0  0  0  0  0  0  0  0  0
    3.3036    0.5057    0.0000 C   0  0  0  0  0  0  0  0  0  0  0  0
    4.7520    0.8960    0.0000 C   0  0  0  0  0  0  0  0  0  0  0  0
    2.9174   -0.9437    0.0000 C   0  0  0  0  0  0  0  0  0  0  0  0
    1.4691   -1.3339    0.0000 C   0  0  0  0  0  0  0  0  0  0  0  0
    1.0829   -2.7834    0.0000 N   0  0  0  0  0  0  0  0  0  0  0  0
   -3.5519    0.0039    0.0000 C   0  0  0  0  0  0  0  0  0  0  0  0
   -3.9381   -1.4455    0.0000 O   0  0  0  0  0  0  0  0  0  0  0  0
   -4.6140    1.0631    0.0000 O   0  0  0  0  0  0  0  0  0  0  0  0
  2  1  1  1
  2  3  1  0
  3  4  1  0
  4  5  1  0
  5  6  2  0
  6  7  1  0
  7  8  1  0
  7  9  2  0
  9 10  1  0
 10 11  1  0
  2 12  1  0
 12 13  2  0
 12 14  1  0
 10  4  2  0
M  END
>  <rName>  (2200) 
Phe_2NH2_4Me

>  <PQ_SYMBOL>  (2200) 
Phe_2NH2_4Me

>  <FULL_NAME>  (2200) 
(S)-2-amino-3-(2-amino-4-methylphenyl)propanoic acid

>  <IUPAC_CONDENSED>  (2200) 
Phe(2-NH2,4-Me)

>  <IUPAC>  (2200) 
(2S)-2-amino-3-(2-amino-4-methylphenyl)propanoic acid

>  <TYPE>  (2200) 
Backbone

>  <CLASS>  (2200) 
alpha

>  <ANALOG>  (2200) 
Phe

>  <MOL_WT>  (2200) 
194.23399999999995

>  <LOGP>  (2200) 
0.53162

>  <TPSA>  (2200) 
89.34

>  <POPULARITY>  (2200) 
3.7

>  <PROTECTED>  (2200) 
TRUE

>  <SMILES>  (2200) 
N[C@@H](Cc1(ccc(C)cc1N))C(=O)O

>  <INCHIKEY>  (2200) 
ZIAYHZBNDYJFKK-VIFPVBQESA-N

$$$$
Phe_3Me_5F
     RDKit          2D

 14 14  0  0  0  0  0  0  0  0999 V2000
   -1.8014    1.6047    0.0000 N   0  0  0  0  0  0  0  0  0  0  0  0
   -2.1617    0.1486    0.0000 C   0  0  0  0  0  0  0  0  0  0  0  0
   -1.0809   -0.8915    0.0000 C   0  0  0  0  0  0  0  0  0  0  0  0
    0.3603   -0.4755    0.0000 C   0  0  0  0  0  0  0  0  0  0  0  0
    0.7206    0.9806    0.0000 C   0  0  0  0  0  0  0  0  0  0  0  0
    2.1617    1.3967    0.0000 C   0  0  0  0  0  0  0  0  0  0  0  0
    2.5220    2.8527    0.0000 C   0  0  0  0  0  0  0  0  0  0  0  0
    3.2426    0.3566    0.0000 C   0  0  0  0  0  0  0  0  0  0  0  0
    2.8823   -1.0995    0.0000 C   0  0  0  0  0  0  0  0  0  0  0  0
    3.9632   -2.1396    0.0000 F   0  0  0  0  0  0  0  0  0  0  0  0
    1.4412   -1.5155    0.0000 C   0  0  0  0  0  0  0  0  0  0  0  0
   -3.6029   -0.2674    0.0000 C   0  0  0  0  0  0  0  0  0  0  0  0
   -3.9632   -1.7235    0.0000 O   0  0  0  0  0  0  0  0  0  0  0  0
   -4.6837    0.7726    0.0000 O   0  0  0  0  0  0  0  0  0  0  0  0
  2  1  1  1
  2  3  1  0
  3  4  1  0
  4  5  2  0
  5  6  1  0
  6  7  1  0
  6  8  2  0
  8  9  1  0
  9 10  1  0
  9 11  2  0
  2 12  1  0
 12 13  2  0
 12 14  1  0
 11  4  1  0
M  END
>  <rName>  (2201) 
Phe_3Me_5F

>  <PQ_SYMBOL>  (2201) 
Phe_3Me_5F

>  <FULL_NAME>  (2201) 
(S)-2-amino-3-(3-fluoro-5-methylphenyl)propanoic acid

>  <IUPAC_CONDENSED>  (2201) 
Phe(3-Me,5-F)

>  <IUPAC>  (2201) 
(2S)-2-amino-3-(3-fluoro-5-methylphenyl)propanoic acid

>  <TYPE>  (2201) 
Backbone

>  <CLASS>  (2201) 
alpha

>  <ANALOG>  (2201) 
Phe

>  <MOL_WT>  (2201) 
197.20899999999997

>  <LOGP>  (2201) 
1.0885200000000002

>  <TPSA>  (2201) 
63.32000000000001

>  <POPULARITY>  (2201) 
4.1

>  <PROTECTED>  (2201) 
TRUE

>  <SMILES>  (2201) 
N[C@@H](Cc1(cc(C)cc(F)c1))C(=O)O

>  <INCHIKEY>  (2201) 
OEGJALAYWIUJRR-VIFPVBQESA-N

$$$$
Q0004
     RDKit          2D

 31 33  0  0  0  0  0  0  0  0999 V2000
   -3.0313    2.1601    0.0000 N   0  0  0  0  0  0  0  0  0  0  0  0
   -4.4790    1.7673    0.0000 C   0  0  0  0  0  0  0  0  0  0  0  0
   -4.8627    0.3172    0.0000 C   0  0  0  0  0  0  0  0  0  0  0  0
   -3.7987   -0.7401    0.0000 C   0  0  0  0  0  0  0  0  0  0  0  0
   -2.3510   -0.3473    0.0000 C   0  0  0  0  0  0  0  0  0  0  0  0
   -1.2870   -1.4046    0.0000 C   0  0  0  0  0  0  0  0  0  0  0  0
   -1.6707   -2.8547    0.0000 C   0  0  0  0  0  0  0  0  0  0  0  0
   -3.1184   -3.2475    0.0000 C   0  0  0  0  0  0  0  0  0  0  0  0
   -4.1824   -2.1902    0.0000 C   0  0  0  0  0  0  0  0  0  0  0  0
   -5.6300   -2.5830    0.0000 C   0  0  0  0  0  0  0  0  0  0  0  0
   -6.0137   -4.0331    0.0000 C   0  0  0  0  0  0  0  0  0  0  0  0
    0.1606   -1.0119    0.0000 C   0  0  0  0  0  0  0  0  0  0  0  0
    0.5534   -2.4595    0.0000 C   0  0  0  0  0  0  0  0  0  0  0  0
   -0.2321    0.4358    0.0000 C   0  0  0  0  0  0  0  0  0  0  0  0
    1.6083   -0.6191    0.0000 C   0  0  0  0  0  0  0  0  0  0  0  0
    2.7770   -1.5594    0.0000 N   0  0  0  0  0  0  0  0  0  0  0  0
    4.0324   -0.7385    0.0000 C   0  0  0  0  0  0  0  0  0  0  0  0
    5.4825   -1.1222    0.0000 C   0  0  0  0  0  0  0  0  0  0  0  0
    6.5398   -0.0582    0.0000 C   0  0  0  0  0  0  0  0  0  0  0  0
    7.9899   -0.4419    0.0000 C   0  0  0  0  0  0  0  0  0  0  0  0
    9.4400   -0.8256    0.0000 N   0  0  0  0  0  0  0  0  0  0  0  0
    6.1471    1.3894    0.0000 C   0  0  0  0  0  0  0  0  0  0  0  0
    4.6970    1.7731    0.0000 C   0  0  0  0  0  0  0  0  0  0  0  0
    3.6396    0.7091    0.0000 C   0  0  0  0  0  0  0  0  0  0  0  0
    2.1415    0.7829    0.0000 C   0  0  0  0  0  0  0  0  0  0  0  0
    1.3206    2.0384    0.0000 C   0  0  0  0  0  0  0  0  0  0  0  0
    1.9973    3.3770    0.0000 O   0  0  0  0  0  0  0  0  0  0  0  0
   -0.1771    1.9552    0.0000 O   0  0  0  0  0  0  0  0  0  0  0  0
   -5.5430    2.8247    0.0000 C   0  0  0  0  0  0  0  0  0  0  0  0
   -6.9906    2.4319    0.0000 O   0  0  0  0  0  0  0  0  0  0  0  0
   -5.1593    4.2748    0.0000 O   0  0  0  0  0  0  0  0  0  0  0  0
  2  1  1  1
  2  3  1  0
  3  4  1  0
  4  5  1  0
  5  6  2  0
  6  7  1  0
  7  8  2  0
  8  9  1  0
  9 10  1  0
 10 11  1  0
  6 12  1  0
 12 13  1  0
 12 14  1  0
 12 15  1  0
 15 16  1  0
 16 17  1  0
 17 18  1  0
 18 19  2  0
 19 20  1  0
 20 21  3  0
 19 22  1  0
 22 23  2  0
 23 24  1  0
 24 25  1  0
 25 26  1  0
 26 27  2  0
 26 28  1  0
  2 29  1  0
 29 30  2  0
 29 31  1  0
  9  4  2  0
 24 17  2  0
 25 15  2  0
M  END
>  <rName>  (2202) 
Q0004

>  <PQ_SYMBOL>  (2202) 
Q0004

>  <FULL_NAME>  (2202) 
2-(2-{3-[(2S)-2-amino-2-carboxyethyl]-4-ethylphenyl}propan-2-yl)-6-cyano-1H-indole-3-carboxylic acid

>  <IUPAC_CONDENSED>  (2202) 


>  <IUPAC>  (2202) 
2-(2-(3-((2S)-2-amino-3-hydroxy-3-oxopropyl)-4-ethylphenyl)propan-2-yl)-6-cyano-1H-indole-3-carboxylic acid

>  <TYPE>  (2202) 
Backbone

>  <CLASS>  (2202) 
alpha

>  <ANALOG>  (2202) 
Phe

>  <MOL_WT>  (2202) 
419.4810000000001

>  <LOGP>  (2202) 
3.5804800000000014

>  <TPSA>  (2202) 
140.2

>  <POPULARITY>  (2202) 
2.2

>  <PROTECTED>  (2202) 
TRUE

>  <SMILES>  (2202) 
N[C@@H](Cc1(cc(ccc1CC)C(C)(C)c3([nH]c2(cc(C#N)ccc2c3C(=O)O))))C(=O)O

>  <INCHIKEY>  (2202) 
IYZFETXPFHGSRC-SFHVURJKSA-N

$$$$
Phe_2OMe_5Cl
     RDKit          2D

 15 15  0  0  0  0  0  0  0  0999 V2000
   -1.8812    1.8031    0.0000 N   0  0  0  0  0  0  0  0  0  0  0  0
   -2.1410    0.3258    0.0000 C   0  0  0  0  0  0  0  0  0  0  0  0
   -0.9915   -0.6379    0.0000 C   0  0  0  0  0  0  0  0  0  0  0  0
    0.4178   -0.1243    0.0000 C   0  0  0  0  0  0  0  0  0  0  0  0
    0.6776    1.3531    0.0000 C   0  0  0  0  0  0  0  0  0  0  0  0
    2.0870    1.8667    0.0000 C   0  0  0  0  0  0  0  0  0  0  0  0
    2.3468    3.3440    0.0000 Cl  0  0  0  0  0  0  0  0  0  0  0  0
    3.2364    0.9030    0.0000 C   0  0  0  0  0  0  0  0  0  0  0  0
    2.9766   -0.5743    0.0000 C   0  0  0  0  0  0  0  0  0  0  0  0
    1.5673   -1.0879    0.0000 C   0  0  0  0  0  0  0  0  0  0  0  0
    1.3074   -2.5653    0.0000 O   0  0  0  0  0  0  0  0  0  0  0  0
    2.4569   -3.5290    0.0000 C   0  0  0  0  0  0  0  0  0  0  0  0
   -3.5503   -0.1878    0.0000 C   0  0  0  0  0  0  0  0  0  0  0  0
   -3.8102   -1.6651    0.0000 O   0  0  0  0  0  0  0  0  0  0  0  0
   -4.6998    0.7759    0.0000 O   0  0  0  0  0  0  0  0  0  0  0  0
  2  1  1  1
  2  3  1  0
  3  4  1  0
  4  5  1  0
  5  6  2  0
  6  7  1  0
  6  8  1  0
  8  9  2  0
  9 10  1  0
 10 11  1  0
 11 12  1  0
  2 13  1  0
 13 14  2  0
 13 15  1  0
 10  4  2  0
M  END
>  <rName>  (2203) 
Phe_2OMe_5Cl

>  <PQ_SYMBOL>  (2203) 
Phe_2OMe_5Cl

>  <FULL_NAME>  (2203) 
(S)-2-amino-3-(5-chloro-2-methoxyphenyl)propanoic acid

>  <IUPAC_CONDENSED>  (2203) 
Phe(2-OMe,5-Cl)

>  <IUPAC>  (2203) 
(2S)-2-amino-3-(5-chloro-2-methoxyphenyl)propanoic acid

>  <TYPE>  (2203) 
Backbone

>  <CLASS>  (2203) 
alpha

>  <ANALOG>  (2203) 
Tyr

>  <MOL_WT>  (2203) 
229.66299999999998

>  <LOGP>  (2203) 
1.303

>  <TPSA>  (2203) 
72.55

>  <POPULARITY>  (2203) 
3.1

>  <PROTECTED>  (2203) 
TRUE

>  <SMILES>  (2203) 
N[C@@H](Cc1(cc(Cl)ccc1OC))C(=O)O

>  <INCHIKEY>  (2203) 
GYEARKBBUBYION-QMMMGPOBSA-N

$$$$
Phe_2F_4CO2H
     RDKit          2D

 16 16  0  0  0  0  0  0  0  0999 V2000
   -2.2742    1.8739    0.0000 N   0  0  0  0  0  0  0  0  0  0  0  0
   -2.7626    0.4557    0.0000 C   0  0  0  0  0  0  0  0  0  0  0  0
   -1.7786   -0.6765    0.0000 C   0  0  0  0  0  0  0  0  0  0  0  0
   -0.3062   -0.3903    0.0000 C   0  0  0  0  0  0  0  0  0  0  0  0
    0.1823    1.0279    0.0000 C   0  0  0  0  0  0  0  0  0  0  0  0
    1.6547    1.3140    0.0000 C   0  0  0  0  0  0  0  0  0  0  0  0
    2.6387    0.1819    0.0000 C   0  0  0  0  0  0  0  0  0  0  0  0
    2.1503   -1.2363    0.0000 C   0  0  0  0  0  0  0  0  0  0  0  0
    0.6779   -1.5225    0.0000 C   0  0  0  0  0  0  0  0  0  0  0  0
    0.1894   -2.9407    0.0000 F   0  0  0  0  0  0  0  0  0  0  0  0
    4.1112    0.4680    0.0000 C   0  0  0  0  0  0  0  0  0  0  0  0
    4.5996    1.8863    0.0000 O   0  0  0  0  0  0  0  0  0  0  0  0
    5.0952   -0.6641    0.0000 O   0  0  0  0  0  0  0  0  0  0  0  0
   -4.2351    0.1695    0.0000 C   0  0  0  0  0  0  0  0  0  0  0  0
   -4.7235   -1.2487    0.0000 O   0  0  0  0  0  0  0  0  0  0  0  0
   -5.2191    1.3017    0.0000 O   0  0  0  0  0  0  0  0  0  0  0  0
  2  1  1  1
  2  3  1  0
  3  4  1  0
  4  5  1  0
  5  6  2  0
  6  7  1  0
  7  8  2  0
  8  9  1  0
  9 10  1  0
  7 11  1  0
 11 12  2  0
 11 13  1  0
  2 14  1  0
 14 15  2  0
 14 16  1  0
  9  4  2  0
M  END
>  <rName>  (2204) 
Phe_2F_4CO2H

>  <PQ_SYMBOL>  (2204) 
Phe_2F_4CO2H

>  <FULL_NAME>  (2204) 
(S)-4-(2-amino-2-carboxyethyl)-3-fluorobenzoic acid

>  <IUPAC_CONDENSED>  (2204) 
Phe(2-F,4-CO2H)

>  <IUPAC>  (2204) 
4-((2S)-2-amino-3-hydroxy-3-oxopropyl)-3-fluorobenzene-1-carboxylic acid

>  <TYPE>  (2204) 
Backbone

>  <CLASS>  (2204) 
alpha

>  <ANALOG>  (2204) 
Phe

>  <MOL_WT>  (2204) 
227.19099999999995

>  <LOGP>  (2204) 
0.47829999999999984

>  <TPSA>  (2204) 
100.62000000000002

>  <POPULARITY>  (2204) 
2.7

>  <PROTECTED>  (2204) 
TRUE

>  <SMILES>  (2204) 
N[C@@H](Cc1(ccc(cc1F)C(=O)O))C(=O)O

>  <INCHIKEY>  (2204) 
QEFADKVSLNWCFL-QMMMGPOBSA-N

$$$$
Phe_2Cl_4OCF3
     RDKit          2D

 18 18  0  0  0  0  0  0  0  0999 V2000
   -3.1311    1.8356    0.0000 N   0  0  0  0  0  0  0  0  0  0  0  0
   -3.4689    0.3742    0.0000 C   0  0  0  0  0  0  0  0  0  0  0  0
   -2.3722   -0.6491    0.0000 C   0  0  0  0  0  0  0  0  0  0  0  0
   -0.9376   -0.2109    0.0000 C   0  0  0  0  0  0  0  0  0  0  0  0
   -0.5998    1.2505    0.0000 C   0  0  0  0  0  0  0  0  0  0  0  0
    0.8348    1.6887    0.0000 C   0  0  0  0  0  0  0  0  0  0  0  0
    1.9315    0.6654    0.0000 C   0  0  0  0  0  0  0  0  0  0  0  0
    3.3661    1.1036    0.0000 O   0  0  0  0  0  0  0  0  0  0  0  0
    4.4629    0.0803    0.0000 C   0  0  0  0  0  0  0  0  0  0  0  0
    5.5596   -0.9429    0.0000 F   0  0  0  0  0  0  0  0  0  0  0  0
    5.4861    1.1771    0.0000 F   0  0  0  0  0  0  0  0  0  0  0  0
    3.4396   -1.0164    0.0000 F   0  0  0  0  0  0  0  0  0  0  0  0
    1.5937   -0.7960    0.0000 C   0  0  0  0  0  0  0  0  0  0  0  0
    0.1592   -1.2342    0.0000 C   0  0  0  0  0  0  0  0  0  0  0  0
   -0.1787   -2.6957    0.0000 Cl  0  0  0  0  0  0  0  0  0  0  0  0
   -4.9035   -0.0640    0.0000 C   0  0  0  0  0  0  0  0  0  0  0  0
   -5.2413   -1.5255    0.0000 O   0  0  0  0  0  0  0  0  0  0  0  0
   -6.0003    0.9593    0.0000 O   0  0  0  0  0  0  0  0  0  0  0  0
  2  1  1  1
  2  3  1  0
  3  4  1  0
  4  5  1  0
  5  6  2  0
  6  7  1  0
  7  8  1  0
  8  9  1  0
  9 10  1  0
  9 11  1  0
  9 12  1  0
  7 13  2  0
 13 14  1  0
 14 15  1  0
  2 16  1  0
 16 17  2  0
 16 18  1  0
 14  4  2  0
M  END
>  <rName>  (2205) 
Phe_2Cl_4OCF3

>  <PQ_SYMBOL>  (2205) 
Phe_2Cl_4OCF3

>  <FULL_NAME>  (2205) 
(2S)-2-amino-3-[2-chloro-4-(trifluoromethoxy)phenyl]propanoic acid

>  <IUPAC_CONDENSED>  (2205) 
Tyr(CF3,2-Cl)

>  <IUPAC>  (2205) 
(2S)-2-amino-3-(2-chloro-4-((trifluoromethyl)oxy)phenyl)propanoic acid

>  <TYPE>  (2205) 
Backbone

>  <CLASS>  (2205) 
alpha

>  <ANALOG>  (2205) 
Tyr

>  <MOL_WT>  (2205) 
283.633

>  <LOGP>  (2205) 
2.193

>  <TPSA>  (2205) 
72.55

>  <POPULARITY>  (2205) 
2.5

>  <PROTECTED>  (2205) 
TRUE

>  <SMILES>  (2205) 
N[C@@H](Cc1(ccc(OC(F)(F)F)cc1Cl))C(=O)O

>  <INCHIKEY>  (2205) 
OWSGPBXLIHKJOL-QMMMGPOBSA-N

$$$$
bAla_3Rnaphth2ylmethyl
     RDKit          2D

 17 18  0  0  0  0  0  0  0  0999 V2000
   -1.9056    1.0350    0.0000 N   0  0  0  0  0  0  0  0  0  0  0  0
   -2.3974   -0.3821    0.0000 C   0  0  0  0  0  0  0  0  0  0  0  0
   -1.4161   -1.5166    0.0000 C   0  0  0  0  0  0  0  0  0  0  0  0
    0.0570   -1.2340    0.0000 C   0  0  0  0  0  0  0  0  0  0  0  0
    1.0384   -2.3684    0.0000 C   0  0  0  0  0  0  0  0  0  0  0  0
    2.5115   -2.0858    0.0000 C   0  0  0  0  0  0  0  0  0  0  0  0
    3.0033   -0.6688    0.0000 C   0  0  0  0  0  0  0  0  0  0  0  0
    4.4764   -0.3862    0.0000 C   0  0  0  0  0  0  0  0  0  0  0  0
    4.9683    1.0309    0.0000 C   0  0  0  0  0  0  0  0  0  0  0  0
    3.9870    2.1654    0.0000 C   0  0  0  0  0  0  0  0  0  0  0  0
    2.5138    1.8828    0.0000 C   0  0  0  0  0  0  0  0  0  0  0  0
    2.0220    0.4657    0.0000 C   0  0  0  0  0  0  0  0  0  0  0  0
    0.5489    0.1831    0.0000 C   0  0  0  0  0  0  0  0  0  0  0  0
   -3.8705   -0.6647    0.0000 C   0  0  0  0  0  0  0  0  0  0  0  0
   -4.8519    0.4697    0.0000 C   0  0  0  0  0  0  0  0  0  0  0  0
   -4.3600    1.8868    0.0000 O   0  0  0  0  0  0  0  0  0  0  0  0
   -6.3250    0.1871    0.0000 O   0  0  0  0  0  0  0  0  0  0  0  0
  2  1  1  6
  2  3  1  0
  3  4  1  0
  4  5  1  0
  5  6  2  0
  6  7  1  0
  7  8  2  0
  8  9  1  0
  9 10  2  0
 10 11  1  0
 11 12  2  0
 12 13  1  0
  2 14  1  0
 14 15  1  0
 15 16  2  0
 15 17  1  0
 12  7  1  0
 13  4  2  0
M  END
>  <rName>  (2206) 
bAla_3Rnaphth2ylmethyl

>  <PQ_SYMBOL>  (2206) 
bAla_3Rnaphth2ylmethyl

>  <FULL_NAME>  (2206) 
(R)-3-amino-4-(naphthalen-2-yl)butanoic acid

>  <IUPAC_CONDENSED>  (2206) 
bAla(3R-naphth-2-ylmethyl)

>  <IUPAC>  (2206) 
(3R)-3-amino-4-(naphthalen-2-yl)butanoic acid

>  <TYPE>  (2206) 
Backbone

>  <CLASS>  (2206) 
beta

>  <ANALOG>  (2206) 
Phe

>  <MOL_WT>  (2206) 
229.27899999999997

>  <LOGP>  (2206) 
2.1843

>  <TPSA>  (2206) 
63.32000000000001

>  <POPULARITY>  (2206) 
5.5

>  <PROTECTED>  (2206) 
TRUE

>  <SMILES>  (2206) 
N[C@H](Cc2(ccc1(ccccc1c2)))CC(=O)O

>  <INCHIKEY>  (2206) 
WSVMIVFELRCSPA-CYBMUJFWSA-N

$$$$
4Pal_2F_5F
     RDKit          2D

 14 14  0  0  0  0  0  0  0  0999 V2000
   -1.4552    1.7882    0.0000 N   0  0  0  0  0  0  0  0  0  0  0  0
   -1.9325    0.3661    0.0000 C   0  0  0  0  0  0  0  0  0  0  0  0
   -0.9397   -0.7583    0.0000 C   0  0  0  0  0  0  0  0  0  0  0  0
    0.5305   -0.4606    0.0000 C   0  0  0  0  0  0  0  0  0  0  0  0
    1.0078    0.9614    0.0000 C   0  0  0  0  0  0  0  0  0  0  0  0
    2.4780    1.2591    0.0000 C   0  0  0  0  0  0  0  0  0  0  0  0
    2.9553    2.6811    0.0000 F   0  0  0  0  0  0  0  0  0  0  0  0
    3.4709    0.1347    0.0000 N   0  0  0  0  0  0  0  0  0  0  0  0
    2.9935   -1.2874    0.0000 C   0  0  0  0  0  0  0  0  0  0  0  0
    1.5234   -1.5850    0.0000 C   0  0  0  0  0  0  0  0  0  0  0  0
    1.0461   -3.0070    0.0000 F   0  0  0  0  0  0  0  0  0  0  0  0
   -3.4027    0.0685    0.0000 C   0  0  0  0  0  0  0  0  0  0  0  0
   -3.8800   -1.3536    0.0000 O   0  0  0  0  0  0  0  0  0  0  0  0
   -4.3955    1.1929    0.0000 O   0  0  0  0  0  0  0  0  0  0  0  0
  2  1  1  1
  2  3  1  0
  3  4  1  0
  4  5  1  0
  5  6  2  0
  6  7  1  0
  6  8  1  0
  8  9  2  0
  9 10  1  0
 10 11  1  0
  2 12  1  0
 12 13  2  0
 12 14  1  0
 10  4  2  0
M  END
>  <rName>  (2207) 
4Pal_2F_5F

>  <PQ_SYMBOL>  (2207) 
4Pal_2F_5F

>  <FULL_NAME>  (2207) 
(S)-2-amino-3-(2,5-difluoropyridin-4-yl)propanoic acid

>  <IUPAC_CONDENSED>  (2207) 
4Pal(2-F,5-F)

>  <IUPAC>  (2207) 
(2S)-2-amino-3-(2,5-difluoropyridin-4-yl)propanoic acid

>  <TYPE>  (2207) 
Backbone

>  <CLASS>  (2207) 
alpha

>  <ANALOG>  (2207) 
Phe

>  <MOL_WT>  (2207) 
202.15999999999997

>  <LOGP>  (2207) 
0.31419999999999976

>  <TPSA>  (2207) 
76.21

>  <POPULARITY>  (2207) 
2.4

>  <PROTECTED>  (2207) 
TRUE

>  <SMILES>  (2207) 
N[C@@H](Cc1(cc(F)ncc1F))C(=O)O

>  <INCHIKEY>  (2207) 
GFAOTXJJHWRIQG-LURJTMIESA-N

$$$$
Hyp_prop2ynyl
     RDKit          2D

 12 12  0  0  0  0  0  0  0  0999 V2000
    1.8182   -1.6019    0.0000 N   0  0  0  0  0  0  0  0  0  0  0  0
    1.8556   -0.1023    0.0000 C   0  0  0  0  0  0  0  0  0  0  0  0
    0.4409    0.3965    0.0000 C   0  0  0  0  0  0  0  0  0  0  0  0
   -0.4706   -0.7947    0.0000 C   0  0  0  0  0  0  0  0  0  0  0  0
   -1.9702   -0.7574    0.0000 O   0  0  0  0  0  0  0  0  0  0  0  0
   -2.6876    0.5599    0.0000 C   0  0  0  0  0  0  0  0  0  0  0  0
   -4.1872    0.5972    0.0000 C   0  0  0  0  0  0  0  0  0  0  0  0
   -5.6867    0.6345    0.0000 C   0  0  0  0  0  0  0  0  0  0  0  0
    0.3806   -2.0298    0.0000 C   0  0  0  0  0  0  0  0  0  0  0  0
    3.0906    0.7489    0.0000 C   0  0  0  0  0  0  0  0  0  0  0  0
    2.9710    2.2441    0.0000 O   0  0  0  0  0  0  0  0  0  0  0  0
    4.4454    0.1049    0.0000 O   0  0  0  0  0  0  0  0  0  0  0  0
  1  2  1  0
  2  3  1  0
  3  4  1  0
  4  5  1  6
  5  6  1  0
  6  7  1  0
  7  8  3  0
  4  9  1  0
  2 10  1  1
 10 11  2  0
 10 12  1  0
  9  1  1  0
M  END
>  <rName>  (2208) 
Hyp_prop2ynyl

>  <PQ_SYMBOL>  (2208) 
Hyp_prop2ynyl

>  <FULL_NAME>  (2208) 
(2S,4R)-4-(prop-2-yn-1-yloxy)pyrrolidine-2-carboxylic acid

>  <IUPAC_CONDENSED>  (2208) 
Hyp(prop-2-ynyl)

>  <IUPAC>  (2208) 
(2S,4R)-4-((prop-2-yn-1-yl)oxy)pyrrolidine-2-carboxylic acid

>  <TYPE>  (2208) 
Backbone

>  <CLASS>  (2208) 
alpha

>  <ANALOG>  (2208) 
Pro

>  <MOL_WT>  (2208) 
169.18

>  <LOGP>  (2208) 
-0.5487

>  <TPSA>  (2208) 
58.56

>  <POPULARITY>  (2208) 
3.4

>  <PROTECTED>  (2208) 
TRUE

>  <SMILES>  (2208) 
N1[C@@H](C[C@@H](OCC#C)C1)C(=O)O

>  <INCHIKEY>  (2208) 
ZXFXGGZFTHVWKF-RQJHMYQMSA-N

$$$$
2Pal_3NH2_6Me
     RDKit          2D

 14 14  0  0  0  0  0  0  0  0999 V2000
   -1.4552    1.7882    0.0000 N   0  0  0  0  0  0  0  0  0  0  0  0
   -1.9325    0.3661    0.0000 C   0  0  0  0  0  0  0  0  0  0  0  0
   -0.9397   -0.7583    0.0000 C   0  0  0  0  0  0  0  0  0  0  0  0
    0.5305   -0.4606    0.0000 C   0  0  0  0  0  0  0  0  0  0  0  0
    1.0078    0.9614    0.0000 N   0  0  0  0  0  0  0  0  0  0  0  0
    2.4780    1.2591    0.0000 C   0  0  0  0  0  0  0  0  0  0  0  0
    2.9553    2.6811    0.0000 C   0  0  0  0  0  0  0  0  0  0  0  0
    3.4709    0.1347    0.0000 C   0  0  0  0  0  0  0  0  0  0  0  0
    2.9935   -1.2874    0.0000 C   0  0  0  0  0  0  0  0  0  0  0  0
    1.5234   -1.5850    0.0000 C   0  0  0  0  0  0  0  0  0  0  0  0
    1.0461   -3.0070    0.0000 N   0  0  0  0  0  0  0  0  0  0  0  0
   -3.4027    0.0685    0.0000 C   0  0  0  0  0  0  0  0  0  0  0  0
   -3.8800   -1.3536    0.0000 O   0  0  0  0  0  0  0  0  0  0  0  0
   -4.3955    1.1929    0.0000 O   0  0  0  0  0  0  0  0  0  0  0  0
  2  1  1  1
  2  3  1  0
  3  4  1  0
  4  5  1  0
  5  6  2  0
  6  7  1  0
  6  8  1  0
  8  9  2  0
  9 10  1  0
 10 11  1  0
  2 12  1  0
 12 13  2  0
 12 14  1  0
 10  4  2  0
M  END
>  <rName>  (2209) 
2Pal_3NH2_6Me

>  <PQ_SYMBOL>  (2209) 
2Pal_3NH2_6Me

>  <FULL_NAME>  (2209) 
(S)-2-amino-3-(3-amino-6-methylpyridin-2-yl)propanoic acid

>  <IUPAC_CONDENSED>  (2209) 
2Pal(3-NH2,6-Me)

>  <IUPAC>  (2209) 
(2S)-2-amino-3-(3-amino-6-methylpyridin-2-yl)propanoic acid

>  <TYPE>  (2209) 
Backbone

>  <CLASS>  (2209) 
alpha

>  <ANALOG>  (2209) 
Phe

>  <MOL_WT>  (2209) 
195.22199999999998

>  <LOGP>  (2209) 
-0.07338000000000022

>  <TPSA>  (2209) 
102.23

>  <POPULARITY>  (2209) 
2.7

>  <PROTECTED>  (2209) 
TRUE

>  <SMILES>  (2209) 
N[C@@H](Cc1(nc(C)ccc1N))C(=O)O

>  <INCHIKEY>  (2209) 
WMRQLVYUDDZVFJ-ZETCQYMHSA-N

$$$$
Phe_2F_3Cl
     RDKit          2D

 14 14  0  0  0  0  0  0  0  0999 V2000
   -1.9599    1.7683    0.0000 N   0  0  0  0  0  0  0  0  0  0  0  0
   -2.1168    0.2766    0.0000 C   0  0  0  0  0  0  0  0  0  0  0  0
   -0.9034   -0.6052    0.0000 C   0  0  0  0  0  0  0  0  0  0  0  0
    0.4670    0.0047    0.0000 C   0  0  0  0  0  0  0  0  0  0  0  0
    0.6239    1.4965    0.0000 C   0  0  0  0  0  0  0  0  0  0  0  0
    1.9943    2.1065    0.0000 C   0  0  0  0  0  0  0  0  0  0  0  0
    3.2078    1.2247    0.0000 C   0  0  0  0  0  0  0  0  0  0  0  0
    3.0508   -0.2671    0.0000 C   0  0  0  0  0  0  0  0  0  0  0  0
    4.2643   -1.1489    0.0000 Cl  0  0  0  0  0  0  0  0  0  0  0  0
    1.6804   -0.8771    0.0000 C   0  0  0  0  0  0  0  0  0  0  0  0
    1.5235   -2.3688    0.0000 F   0  0  0  0  0  0  0  0  0  0  0  0
   -3.4872   -0.3334    0.0000 C   0  0  0  0  0  0  0  0  0  0  0  0
   -3.6441   -1.8252    0.0000 O   0  0  0  0  0  0  0  0  0  0  0  0
   -4.7006    0.5484    0.0000 O   0  0  0  0  0  0  0  0  0  0  0  0
  2  1  1  1
  2  3  1  0
  3  4  1  0
  4  5  2  0
  5  6  1  0
  6  7  2  0
  7  8  1  0
  8  9  1  0
  8 10  2  0
 10 11  1  0
  2 12  1  0
 12 13  2  0
 12 14  1  0
 10  4  1  0
M  END
>  <rName>  (2210) 
Phe_2F_3Cl

>  <PQ_SYMBOL>  (2210) 
Phe_2F_3Cl

>  <FULL_NAME>  (2210) 
(S)-2-amino-3-(3-chloro-2-fluorophenyl)propanoic acid

>  <IUPAC_CONDENSED>  (2210) 
Phe(2-F,3-Cl)

>  <IUPAC>  (2210) 
(2S)-2-amino-3-(3-chloro-2-fluorophenyl)propanoic acid

>  <TYPE>  (2210) 
Backbone

>  <CLASS>  (2210) 
alpha

>  <ANALOG>  (2210) 
Phe

>  <MOL_WT>  (2210) 
217.62699999999995

>  <LOGP>  (2210) 
1.4335000000000002

>  <TPSA>  (2210) 
63.32000000000001

>  <POPULARITY>  (2210) 
7

>  <PROTECTED>  (2210) 
TRUE

>  <SMILES>  (2210) 
N[C@@H](Cc1(cccc(Cl)c1F))C(=O)O

>  <INCHIKEY>  (2210) 
LSZBXQYJHCORIE-ZETCQYMHSA-N

$$$$
hSec
     RDKit          2D

  8  7  0  0  0  0  0  0  0  0999 V2000
   -0.2517   -1.8862    0.0000 N   0  0  0  0  0  0  0  0  0  0  0  0
   -0.3100   -0.3873    0.0000 C   0  0  0  0  0  0  0  0  0  0  0  0
    0.9590    0.4126    0.0000 C   0  0  0  0  0  0  0  0  0  0  0  0
    2.2862   -0.2864    0.0000 C   0  0  0  0  0  0  0  0  0  0  0  0
    3.5551    0.5134    0.0000 Se  0  0  0  0  0  2  0  0  0  0  0  0
   -1.6371    0.3117    0.0000 C   0  0  0  0  0  0  0  0  0  0  0  0
   -1.6954    1.8105    0.0000 O   0  0  0  0  0  0  0  0  0  0  0  0
   -2.9061   -0.4882    0.0000 O   0  0  0  0  0  0  0  0  0  0  0  0
  2  1  1  6
  2  3  1  0
  3  4  1  0
  4  5  1  0
  2  6  1  0
  6  7  2  0
  6  8  1  0
M  END
>  <rName>  (2211) 
hSec

>  <PQ_SYMBOL>  (2211) 
hSec

>  <FULL_NAME>  (2211) 
(S)-2-amino-4-hydroselenobutanoic acid

>  <IUPAC_CONDENSED>  (2211) 
hSec

>  <IUPAC>  (2211) 
(2S)-2-amino-4-selanylbutanoic acid

>  <TYPE>  (2211) 
Backbone

>  <CLASS>  (2211) 
alpha

>  <ANALOG>  (2211) 
Cys

>  <MOL_WT>  (2211) 
182.081

>  <LOGP>  (2211) 
-0.8925000000000003

>  <TPSA>  (2211) 
63.32000000000001

>  <POPULARITY>  (2211) 
5.9

>  <PROTECTED>  (2211) 
TRUE

>  <SMILES>  (2211) 
N[C@@H](CC[SeH])C(=O)O

>  <INCHIKEY>  (2211) 
RCWCGLALNCIQNM-VKHMYHEASA-N

$$$$
Phe_2Ph
     RDKit          2D

 18 19  0  0  0  0  0  0  0  0999 V2000
   -3.4104    0.9652    0.0000 N   0  0  0  0  0  0  0  0  0  0  0  0
   -2.6159   -0.3071    0.0000 C   0  0  0  0  0  0  0  0  0  0  0  0
   -1.1168   -0.2553    0.0000 C   0  0  0  0  0  0  0  0  0  0  0  0
   -0.4122    1.0689    0.0000 C   0  0  0  0  0  0  0  0  0  0  0  0
   -1.2067    2.3412    0.0000 C   0  0  0  0  0  0  0  0  0  0  0  0
   -0.5020    3.6654    0.0000 C   0  0  0  0  0  0  0  0  0  0  0  0
    0.9971    3.7173    0.0000 C   0  0  0  0  0  0  0  0  0  0  0  0
    1.7915    2.4450    0.0000 C   0  0  0  0  0  0  0  0  0  0  0  0
    1.0869    1.1208    0.0000 C   0  0  0  0  0  0  0  0  0  0  0  0
    1.8814   -0.1515    0.0000 C   0  0  0  0  0  0  0  0  0  0  0  0
    1.1767   -1.4757    0.0000 C   0  0  0  0  0  0  0  0  0  0  0  0
    1.9712   -2.7481    0.0000 C   0  0  0  0  0  0  0  0  0  0  0  0
    3.4703   -2.6962    0.0000 C   0  0  0  0  0  0  0  0  0  0  0  0
    4.1749   -1.3720    0.0000 C   0  0  0  0  0  0  0  0  0  0  0  0
    3.3805   -0.0997    0.0000 C   0  0  0  0  0  0  0  0  0  0  0  0
   -3.3206   -1.6313    0.0000 C   0  0  0  0  0  0  0  0  0  0  0  0
   -2.5261   -2.9037    0.0000 O   0  0  0  0  0  0  0  0  0  0  0  0
   -4.8197   -1.6832    0.0000 O   0  0  0  0  0  0  0  0  0  0  0  0
  2  1  1  1
  2  3  1  0
  3  4  1  0
  4  5  2  0
  5  6  1  0
  6  7  2  0
  7  8  1  0
  8  9  2  0
  9 10  1  0
 10 11  2  0
 11 12  1  0
 12 13  2  0
 13 14  1  0
 14 15  2  0
  2 16  1  0
 16 17  2  0
 16 18  1  0
  9  4  1  0
 15 10  1  0
M  END
>  <rName>  (2212) 
Phe_2Ph

>  <PQ_SYMBOL>  (2212) 
Phe_2Ph

>  <FULL_NAME>  (2212) 
(S)-3-([1,1'-biphenyl]-2-yl)-2-aminopropanoic acid

>  <IUPAC_CONDENSED>  (2212) 
Phe(2-Ph)

>  <IUPAC>  (2212) 
(2S)-2-amino-3-(2-phenylphenyl)propanoic acid

>  <TYPE>  (2212) 
Backbone

>  <CLASS>  (2212) 
alpha

>  <ANALOG>  (2212) 
Phe

>  <MOL_WT>  (2212) 
241.29

>  <LOGP>  (2212) 
2.308

>  <TPSA>  (2212) 
63.32000000000001

>  <POPULARITY>  (2212) 
4.4

>  <PROTECTED>  (2212) 
TRUE

>  <SMILES>  (2212) 
N[C@@H](Cc1(ccccc1c2(ccccc2)))C(=O)O

>  <INCHIKEY>  (2212) 
DBMVJVZQGTXWTP-AWEZNQCLSA-N

$$$$
Phe_3Cl_4F_5CF3
     RDKit          2D

 18 18  0  0  0  0  0  0  0  0999 V2000
   -3.0593    1.5122    0.0000 N   0  0  0  0  0  0  0  0  0  0  0  0
   -3.1852    0.0175    0.0000 C   0  0  0  0  0  0  0  0  0  0  0  0
   -1.9537   -0.8389    0.0000 C   0  0  0  0  0  0  0  0  0  0  0  0
   -0.5963   -0.2006    0.0000 C   0  0  0  0  0  0  0  0  0  0  0  0
   -0.4704    1.2941    0.0000 C   0  0  0  0  0  0  0  0  0  0  0  0
    0.8871    1.9323    0.0000 C   0  0  0  0  0  0  0  0  0  0  0  0
    1.0130    3.4271    0.0000 Cl  0  0  0  0  0  0  0  0  0  0  0  0
    2.1185    1.0759    0.0000 C   0  0  0  0  0  0  0  0  0  0  0  0
    3.4760    1.7142    0.0000 F   0  0  0  0  0  0  0  0  0  0  0  0
    1.9926   -0.4188    0.0000 C   0  0  0  0  0  0  0  0  0  0  0  0
    0.6352   -1.0571    0.0000 C   0  0  0  0  0  0  0  0  0  0  0  0
    3.2241   -1.2752    0.0000 C   0  0  0  0  0  0  0  0  0  0  0  0
    4.4556   -2.1316    0.0000 F   0  0  0  0  0  0  0  0  0  0  0  0
    2.3677   -2.5067    0.0000 F   0  0  0  0  0  0  0  0  0  0  0  0
    4.0805   -0.0437    0.0000 F   0  0  0  0  0  0  0  0  0  0  0  0
   -4.5426   -0.6208    0.0000 C   0  0  0  0  0  0  0  0  0  0  0  0
   -4.6686   -2.1155    0.0000 O   0  0  0  0  0  0  0  0  0  0  0  0
   -5.7741    0.2356    0.0000 O   0  0  0  0  0  0  0  0  0  0  0  0
  2  1  1  1
  2  3  1  0
  3  4  1  0
  4  5  2  0
  5  6  1  0
  6  7  1  0
  6  8  2  0
  8  9  1  0
  8 10  1  0
 10 11  2  0
 10 12  1  0
 12 13  1  0
 12 14  1  0
 12 15  1  0
  2 16  1  0
 16 17  2  0
 16 18  1  0
 11  4  1  0
M  END
>  <rName>  (2213) 
Phe_3Cl_4F_5CF3

>  <PQ_SYMBOL>  (2213) 
Phe_3Cl_4F_5CF3

>  <FULL_NAME>  (2213) 
(S)-2-amino-3-(3-chloro-4-fluoro-5-(trifluoromethyl)phenyl)propanoic acid

>  <IUPAC_CONDENSED>  (2213) 
Phe(3-Cl,4-F,5-CF3)

>  <IUPAC>  (2213) 
(2S)-2-amino-3-(3-chloro-4-fluoro-5-(trifluoromethyl)phenyl)propanoic acid

>  <TYPE>  (2213) 
Backbone

>  <CLASS>  (2213) 
alpha

>  <ANALOG>  (2213) 
Phe

>  <MOL_WT>  (2213) 
285.62399999999997

>  <LOGP>  (2213) 
2.4523

>  <TPSA>  (2213) 
63.32000000000001

>  <POPULARITY>  (2213) 
2.4

>  <PROTECTED>  (2213) 
TRUE

>  <SMILES>  (2213) 
N[C@@H](Cc1(cc(Cl)c(F)c(c1)C(F)(F)F))C(=O)O

>  <INCHIKEY>  (2213) 
CANIYZBQTQSMEZ-ZETCQYMHSA-N

$$$$
Phe_2Me_5Cl
     RDKit          2D

 14 14  0  0  0  0  0  0  0  0999 V2000
   -1.4552    1.7882    0.0000 N   0  0  0  0  0  0  0  0  0  0  0  0
   -1.9325    0.3661    0.0000 C   0  0  0  0  0  0  0  0  0  0  0  0
   -0.9397   -0.7583    0.0000 C   0  0  0  0  0  0  0  0  0  0  0  0
    0.5305   -0.4606    0.0000 C   0  0  0  0  0  0  0  0  0  0  0  0
    1.0078    0.9614    0.0000 C   0  0  0  0  0  0  0  0  0  0  0  0
    2.4780    1.2591    0.0000 C   0  0  0  0  0  0  0  0  0  0  0  0
    2.9553    2.6811    0.0000 Cl  0  0  0  0  0  0  0  0  0  0  0  0
    3.4709    0.1347    0.0000 C   0  0  0  0  0  0  0  0  0  0  0  0
    2.9935   -1.2874    0.0000 C   0  0  0  0  0  0  0  0  0  0  0  0
    1.5234   -1.5850    0.0000 C   0  0  0  0  0  0  0  0  0  0  0  0
    1.0461   -3.0070    0.0000 C   0  0  0  0  0  0  0  0  0  0  0  0
   -3.4027    0.0685    0.0000 C   0  0  0  0  0  0  0  0  0  0  0  0
   -3.8800   -1.3536    0.0000 O   0  0  0  0  0  0  0  0  0  0  0  0
   -4.3955    1.1929    0.0000 O   0  0  0  0  0  0  0  0  0  0  0  0
  2  1  1  1
  2  3  1  0
  3  4  1  0
  4  5  1  0
  5  6  2  0
  6  7  1  0
  6  8  1  0
  8  9  2  0
  9 10  1  0
 10 11  1  0
  2 12  1  0
 12 13  2  0
 12 14  1  0
 10  4  2  0
M  END
>  <rName>  (2214) 
Phe_2Me_5Cl

>  <PQ_SYMBOL>  (2214) 
Phe_2Me_5Cl

>  <FULL_NAME>  (2214) 
(S)-2-amino-3-(5-chloro-2-methylphenyl)propanoic acid

>  <IUPAC_CONDENSED>  (2214) 
Phe(2-Me,5-Cl)

>  <IUPAC>  (2214) 
(2S)-2-amino-3-(5-chloro-2-methylphenyl)propanoic acid

>  <TYPE>  (2214) 
Backbone

>  <CLASS>  (2214) 
alpha

>  <ANALOG>  (2214) 
Phe

>  <MOL_WT>  (2214) 
213.664

>  <LOGP>  (2214) 
1.6028200000000001

>  <TPSA>  (2214) 
63.32000000000001

>  <POPULARITY>  (2214) 
4.3

>  <PROTECTED>  (2214) 
TRUE

>  <SMILES>  (2214) 
N[C@@H](Cc1(cc(Cl)ccc1C))C(=O)O

>  <INCHIKEY>  (2214) 
XOJPGEIIQISZFF-VIFPVBQESA-N

$$$$
Phe_2Cl_3CO2H
     RDKit          2D

 16 16  0  0  0  0  0  0  0  0999 V2000
   -2.7535    1.6987    0.0000 N   0  0  0  0  0  0  0  0  0  0  0  0
   -2.7597    0.1988    0.0000 C   0  0  0  0  0  0  0  0  0  0  0  0
   -1.4637   -0.5565    0.0000 C   0  0  0  0  0  0  0  0  0  0  0  0
   -0.1616    0.1882    0.0000 C   0  0  0  0  0  0  0  0  0  0  0  0
   -0.1555    1.6881    0.0000 C   0  0  0  0  0  0  0  0  0  0  0  0
    1.1466    2.4328    0.0000 C   0  0  0  0  0  0  0  0  0  0  0  0
    2.4426    1.6775    0.0000 C   0  0  0  0  0  0  0  0  0  0  0  0
    2.4364    0.1776    0.0000 C   0  0  0  0  0  0  0  0  0  0  0  0
    3.7324   -0.5777    0.0000 C   0  0  0  0  0  0  0  0  0  0  0  0
    5.0345    0.1670    0.0000 O   0  0  0  0  0  0  0  0  0  0  0  0
    3.7263   -2.0777    0.0000 O   0  0  0  0  0  0  0  0  0  0  0  0
    1.1344   -0.5671    0.0000 C   0  0  0  0  0  0  0  0  0  0  0  0
    1.1282   -2.0671    0.0000 Cl  0  0  0  0  0  0  0  0  0  0  0  0
   -4.0618   -0.5459    0.0000 C   0  0  0  0  0  0  0  0  0  0  0  0
   -4.0679   -2.0459    0.0000 O   0  0  0  0  0  0  0  0  0  0  0  0
   -5.3577    0.2094    0.0000 O   0  0  0  0  0  0  0  0  0  0  0  0
  2  1  1  1
  2  3  1  0
  3  4  1  0
  4  5  1  0
  5  6  2  0
  6  7  1  0
  7  8  2  0
  8  9  1  0
  9 10  2  0
  9 11  1  0
  8 12  1  0
 12 13  1  0
  2 14  1  0
 14 15  2  0
 14 16  1  0
 12  4  2  0
M  END
>  <rName>  (2215) 
Phe_2Cl_3CO2H

>  <PQ_SYMBOL>  (2215) 
Phe_2Cl_3CO2H

>  <FULL_NAME>  (2215) 
(S)-3-(2-amino-2-carboxyethyl)-2-chlorobenzoic acid

>  <IUPAC_CONDENSED>  (2215) 
Phe(2-Cl,3-CO2H)

>  <IUPAC>  (2215) 
3-((2S)-2-amino-3-hydroxy-3-oxopropyl)-2-chlorobenzene-1-carboxylic acid

>  <TYPE>  (2215) 
Backbone

>  <CLASS>  (2215) 
alpha

>  <ANALOG>  (2215) 
Phe

>  <MOL_WT>  (2215) 
243.64599999999996

>  <LOGP>  (2215) 
0.9926000000000001

>  <TPSA>  (2215) 
100.62000000000002

>  <POPULARITY>  (2215) 
2.3

>  <PROTECTED>  (2215) 
TRUE

>  <SMILES>  (2215) 
N[C@@H](Cc1(cccc(C(=O)O)c1Cl))C(=O)O

>  <INCHIKEY>  (2215) 
FBIOTNFXAOJDES-ZETCQYMHSA-N

$$$$
aMeDab
     RDKit          2D

  9  8  0  0  0  0  0  0  0  0999 V2000
    0.4883    1.7705    0.0000 N   0  0  0  0  0  0  0  0  0  0  0  0
   -0.4082    0.5679    0.0000 C   0  0  0  0  0  0  0  0  0  0  0  0
   -1.6108    1.4643    0.0000 C   0  0  0  0  0  0  0  0  0  0  0  0
    0.7944   -0.3286    0.0000 C   0  0  0  0  0  0  0  0  0  0  0  0
    2.1721    0.2647    0.0000 C   0  0  0  0  0  0  0  0  0  0  0  0
    3.3748   -0.6318    0.0000 N   0  0  0  0  0  0  0  0  0  0  0  0
   -1.3047   -0.6348    0.0000 C   0  0  0  0  0  0  0  0  0  0  0  0
   -2.7944   -0.4597    0.0000 O   0  0  0  0  0  0  0  0  0  0  0  0
   -0.7114   -2.0125    0.0000 O   0  0  0  0  0  0  0  0  0  0  0  0
  1  2  1  0
  2  3  1  6
  2  4  1  0
  4  5  1  0
  5  6  1  0
  2  7  1  0
  7  8  2  0
  7  9  1  0
M  END
>  <rName>  (2216) 
aMeDab

>  <PQ_SYMBOL>  (2216) 
aMeDab

>  <FULL_NAME>  (2216) 
(S)-2,4-diamino-2-methylbutanoic acid

>  <IUPAC_CONDENSED>  (2216) 
aMeDab

>  <IUPAC>  (2216) 
(2S)-2,4-diamino-2-methylbutanoic acid

>  <TYPE>  (2216) 
Backbone

>  <CLASS>  (2216) 
alpha

>  <ANALOG>  (2216) 
X

>  <MOL_WT>  (2216) 
132.163

>  <LOGP>  (2216) 
-0.8628

>  <TPSA>  (2216) 
89.34

>  <POPULARITY>  (2216) 
9.4

>  <PROTECTED>  (2216) 
TRUE

>  <SMILES>  (2216) 
N[C@@](C)(CCN)C(=O)O

>  <INCHIKEY>  (2216) 
CSFFOBGGUBKCFN-YFKPBYRVSA-N

$$$$
Phe_2iPr
     RDKit          2D

 15 15  0  0  0  0  0  0  0  0999 V2000
   -2.0511    1.9295    0.0000 N   0  0  0  0  0  0  0  0  0  0  0  0
   -2.0725    0.4296    0.0000 C   0  0  0  0  0  0  0  0  0  0  0  0
   -0.7843   -0.3388    0.0000 C   0  0  0  0  0  0  0  0  0  0  0  0
    0.5253    0.3925    0.0000 C   0  0  0  0  0  0  0  0  0  0  0  0
    0.5467    1.8924    0.0000 C   0  0  0  0  0  0  0  0  0  0  0  0
    1.8563    2.6238    0.0000 C   0  0  0  0  0  0  0  0  0  0  0  0
    3.1445    1.8553    0.0000 C   0  0  0  0  0  0  0  0  0  0  0  0
    3.1231    0.3555    0.0000 C   0  0  0  0  0  0  0  0  0  0  0  0
    1.8135   -0.3759    0.0000 C   0  0  0  0  0  0  0  0  0  0  0  0
    1.7921   -1.8758    0.0000 C   0  0  0  0  0  0  0  0  0  0  0  0
    3.0803   -2.6442    0.0000 C   0  0  0  0  0  0  0  0  0  0  0  0
    0.4825   -2.6072    0.0000 C   0  0  0  0  0  0  0  0  0  0  0  0
   -3.3821   -0.3018    0.0000 C   0  0  0  0  0  0  0  0  0  0  0  0
   -3.4036   -1.8016    0.0000 O   0  0  0  0  0  0  0  0  0  0  0  0
   -4.6704    0.4667    0.0000 O   0  0  0  0  0  0  0  0  0  0  0  0
  2  1  1  1
  2  3  1  0
  3  4  1  0
  4  5  2  0
  5  6  1  0
  6  7  2  0
  7  8  1  0
  8  9  2  0
  9 10  1  0
 10 11  1  0
 10 12  1  0
  2 13  1  0
 13 14  2  0
 13 15  1  0
  9  4  1  0
M  END
>  <rName>  (2217) 
Phe_2iPr

>  <PQ_SYMBOL>  (2217) 
Phe_2iPr

>  <FULL_NAME>  (2217) 
(S)-2-amino-3-(2-isopropylphenyl)propanoic acid

>  <IUPAC_CONDENSED>  (2217) 
Phe(2-iPr)

>  <IUPAC>  (2217) 
(2S)-2-amino-3-(2-(propan-2-yl)phenyl)propanoic acid

>  <TYPE>  (2217) 
Backbone

>  <CLASS>  (2217) 
alpha

>  <ANALOG>  (2217) 
Phe

>  <MOL_WT>  (2217) 
207.27299999999997

>  <LOGP>  (2217) 
1.7644000000000002

>  <TPSA>  (2217) 
63.32000000000001

>  <POPULARITY>  (2217) 
4.8

>  <PROTECTED>  (2217) 
TRUE

>  <SMILES>  (2217) 
N[C@@H](Cc1(ccccc1C(C)C))C(=O)O

>  <INCHIKEY>  (2217) 
VHNJMPJZDTZETC-NSHDSACASA-N

$$$$
biotinyl-Phe
     RDKit          2D

 27 29  0  0  0  0  0  0  0  0999 V2000
    2.5758   -1.1398    0.0000 N   0  0  0  0  0  0  0  0  0  0  0  0
    1.3361   -0.2954    0.0000 C   0  0  0  0  0  0  0  0  0  0  0  0
    1.4475    1.2005    0.0000 O   0  0  0  0  0  0  0  0  0  0  0  0
   -0.0151   -0.9468    0.0000 C   0  0  0  0  0  0  0  0  0  0  0  0
   -1.2548   -0.1023    0.0000 C   0  0  0  0  0  0  0  0  0  0  0  0
   -2.6060   -0.7538    0.0000 C   0  0  0  0  0  0  0  0  0  0  0  0
   -3.8457    0.0907    0.0000 C   0  0  0  0  0  0  0  0  0  0  0  0
   -5.1969   -0.5607    0.0000 C   0  0  0  0  0  0  0  0  0  0  0  0
   -5.4641   -2.0367    0.0000 S   0  0  0  0  0  0  0  0  0  0  0  0
   -6.9504   -2.2387    0.0000 C   0  0  0  0  0  0  0  0  0  0  0  0
   -7.6018   -0.8876    0.0000 C   0  0  0  0  0  0  0  0  0  0  0  0
   -8.9230   -0.1773    0.0000 N   0  0  0  0  0  0  0  0  0  0  0  0
   -8.6558    1.2987    0.0000 C   0  0  0  0  0  0  0  0  0  0  0  0
   -9.6929    2.3824    0.0000 O   0  0  0  0  0  0  0  0  0  0  0  0
   -7.1695    1.5007    0.0000 N   0  0  0  0  0  0  0  0  0  0  0  0
   -6.5181    0.1495    0.0000 C   0  0  0  0  0  0  0  0  0  0  0  0
    3.9270   -0.4884    0.0000 C   0  0  0  0  0  0  0  0  0  0  0  0
    5.1667   -1.3329    0.0000 C   0  0  0  0  0  0  0  0  0  0  0  0
    6.5179   -0.6814    0.0000 C   0  0  0  0  0  0  0  0  0  0  0  0
    7.7576   -1.5259    0.0000 C   0  0  0  0  0  0  0  0  0  0  0  0
    9.1088   -0.8745    0.0000 C   0  0  0  0  0  0  0  0  0  0  0  0
    9.2202    0.6214    0.0000 C   0  0  0  0  0  0  0  0  0  0  0  0
    7.9805    1.4658    0.0000 C   0  0  0  0  0  0  0  0  0  0  0  0
    6.6293    0.8144    0.0000 C   0  0  0  0  0  0  0  0  0  0  0  0
    4.0384    1.0074    0.0000 C   0  0  0  0  0  0  0  0  0  0  0  0
    2.7987    1.8519    0.0000 O   0  0  0  0  0  0  0  0  0  0  0  0
    5.3896    1.6589    0.0000 O   0  0  0  0  0  0  0  0  0  0  0  0
  1  2  1  0
  2  3  2  0
  2  4  1  0
  4  5  1  0
  5  6  1  0
  6  7  1  0
  8  7  1  6
  8  9  1  0
  9 10  1  0
 11 10  1  6
 11 12  1  0
 12 13  1  0
 13 14  2  0
 13 15  1  0
 16 15  1  6
  1 17  1  0
 17 18  1  6
 18 19  1  0
 19 20  2  0
 20 21  1  0
 21 22  2  0
 22 23  1  0
 23 24  2  0
 17 25  1  0
 25 26  2  0
 25 27  1  0
 16  8  1  0
 16 11  1  0
 24 19  1  0
M  END
>  <rName>  (2218) 
biotinyl-Phe

>  <PQ_SYMBOL>  (2218) 
biotinyl-Phe

>  <FULL_NAME>  (2218) 
(5-((3aS,4S,6aR)-2-oxohexahydro-1H-thieno[3,4-d]imidazol-4-yl)pentanoyl)-L-phenylalanine

>  <IUPAC_CONDENSED>  (2218) 
biotinyl-Phe

>  <IUPAC>  (2218) 
(2S)-2-(4-((1S,2S,5R)-7-oxo-3-thia-6,8-diazabicyclo[3.3.0]octan-2-yl)butylcarbonylamino)-3-phenylpropanoic acid

>  <TYPE>  (2218) 
Backbone

>  <CLASS>  (2218) 
alpha

>  <ANALOG>  (2218) 
Phe

>  <MOL_WT>  (2218) 
391.49300000000017

>  <LOGP>  (2218) 
1.5242999999999995

>  <TPSA>  (2218) 
107.53000000000002

>  <POPULARITY>  (2218) 
2.9

>  <PROTECTED>  (2218) 
TRUE

>  <SMILES>  (2218) 
N(C(=O)CCCC[C@@H]1(SC[C@@H]2(NC(=O)N[C@H]12)))[C@@H](Cc3(ccccc3))C(=O)O

>  <INCHIKEY>  (2218) 
MCMKASCMNHIQTP-JKQORVJESA-N

$$$$
Ala_pyrid2yl_6OMe
     RDKit          2D

 14 14  0  0  0  0  0  0  0  0999 V2000
   -2.2742    1.6194    0.0000 N   0  0  0  0  0  0  0  0  0  0  0  0
   -2.3172    0.1200    0.0000 C   0  0  0  0  0  0  0  0  0  0  0  0
   -1.0402   -0.6669    0.0000 C   0  0  0  0  0  0  0  0  0  0  0  0
    0.2798    0.0456    0.0000 C   0  0  0  0  0  0  0  0  0  0  0  0
    0.3228    1.5450    0.0000 C   0  0  0  0  0  0  0  0  0  0  0  0
    1.6428    2.2574    0.0000 C   0  0  0  0  0  0  0  0  0  0  0  0
    2.9198    1.4705    0.0000 C   0  0  0  0  0  0  0  0  0  0  0  0
    2.8768   -0.0289    0.0000 C   0  0  0  0  0  0  0  0  0  0  0  0
    4.1538   -0.8158    0.0000 O   0  0  0  0  0  0  0  0  0  0  0  0
    4.1108   -2.3152    0.0000 C   0  0  0  0  0  0  0  0  0  0  0  0
    1.5568   -0.7414    0.0000 N   0  0  0  0  0  0  0  0  0  0  0  0
   -3.6372   -0.5924    0.0000 C   0  0  0  0  0  0  0  0  0  0  0  0
   -3.6802   -2.0918    0.0000 O   0  0  0  0  0  0  0  0  0  0  0  0
   -4.9142    0.1945    0.0000 O   0  0  0  0  0  0  0  0  0  0  0  0
  2  1  1  1
  2  3  1  0
  3  4  1  0
  4  5  1  0
  5  6  2  0
  6  7  1  0
  7  8  2  0
  8  9  1  0
  9 10  1  0
  8 11  1  0
  2 12  1  0
 12 13  2  0
 12 14  1  0
 11  4  2  0
M  END
>  <rName>  (2219) 
Ala_pyrid2yl_6OMe

>  <PQ_SYMBOL>  (2219) 
Ala_pyrid2yl_6OMe

>  <FULL_NAME>  (2219) 
(S)-2-amino-3-(6-methoxypyridin-2-yl)propanoic acid

>  <IUPAC_CONDENSED>  (2219) 
Ala(pyrid-2-yl(6-OMe))

>  <IUPAC>  (2219) 
(2S)-2-amino-3-(6-methoxypyridin-2-yl)propanoic acid

>  <TYPE>  (2219) 
Backbone

>  <CLASS>  (2219) 
alpha

>  <ANALOG>  (2219) 
Phe

>  <MOL_WT>  (2219) 
196.20599999999996

>  <LOGP>  (2219) 
0.044599999999999695

>  <TPSA>  (2219) 
85.44000000000001

>  <POPULARITY>  (2219) 
2.9

>  <PROTECTED>  (2219) 
TRUE

>  <SMILES>  (2219) 
N[C@@H](Cc1(cccc(OC)n1))C(=O)O

>  <INCHIKEY>  (2219) 
PMLQHGHTTVPZNG-ZETCQYMHSA-N

$$$$
Phe_26diMe_4NH2
     RDKit          2D

 15 15  0  0  0  0  0  0  0  0999 V2000
   -1.7110    1.6830    0.0000 N   0  0  0  0  0  0  0  0  0  0  0  0
   -2.0873    0.2310    0.0000 C   0  0  0  0  0  0  0  0  0  0  0  0
   -1.0179   -0.8209    0.0000 C   0  0  0  0  0  0  0  0  0  0  0  0
    0.4277   -0.4208    0.0000 C   0  0  0  0  0  0  0  0  0  0  0  0
    0.8040    1.0313    0.0000 C   0  0  0  0  0  0  0  0  0  0  0  0
   -0.2654    2.0832    0.0000 C   0  0  0  0  0  0  0  0  0  0  0  0
    2.2497    1.4315    0.0000 C   0  0  0  0  0  0  0  0  0  0  0  0
    3.3190    0.3796    0.0000 C   0  0  0  0  0  0  0  0  0  0  0  0
    4.7647    0.7797    0.0000 N   0  0  0  0  0  0  0  0  0  0  0  0
    2.9428   -1.0725    0.0000 C   0  0  0  0  0  0  0  0  0  0  0  0
    1.4971   -1.4726    0.0000 C   0  0  0  0  0  0  0  0  0  0  0  0
    1.1209   -2.9247    0.0000 C   0  0  0  0  0  0  0  0  0  0  0  0
   -3.5329   -0.1692    0.0000 C   0  0  0  0  0  0  0  0  0  0  0  0
   -3.9092   -1.6212    0.0000 O   0  0  0  0  0  0  0  0  0  0  0  0
   -4.6023    0.8827    0.0000 O   0  0  0  0  0  0  0  0  0  0  0  0
  2  1  1  1
  2  3  1  0
  3  4  1  0
  4  5  2  0
  5  6  1  0
  5  7  1  0
  7  8  2  0
  8  9  1  0
  8 10  1  0
 10 11  2  0
 11 12  1  0
  2 13  1  0
 13 14  2  0
 13 15  1  0
 11  4  1  0
M  END
>  <rName>  (2220) 
Phe_26diMe_4NH2

>  <PQ_SYMBOL>  (2220) 
Phe_26diMe_4NH2

>  <FULL_NAME>  (2220) 
(S)-2-amino-3-(4-amino-2,6-dimethylphenyl)propanoic acid

>  <IUPAC_CONDENSED>  (2220) 
Phe(2,6-diMe,4-NH2)

>  <IUPAC>  (2220) 
(2S)-2-amino-3-(4-amino-2,6-dimethylphenyl)propanoic acid

>  <TYPE>  (2220) 
Backbone

>  <CLASS>  (2220) 
alpha

>  <ANALOG>  (2220) 
Phe

>  <MOL_WT>  (2220) 
208.261

>  <LOGP>  (2220) 
0.8400400000000003

>  <TPSA>  (2220) 
89.34

>  <POPULARITY>  (2220) 
2.8

>  <PROTECTED>  (2220) 
TRUE

>  <SMILES>  (2220) 
N[C@@H](Cc1(c(C)cc(N)cc1C))C(=O)O

>  <INCHIKEY>  (2220) 
TWGNFJVGFVYEFS-JTQLQIEISA-N

$$$$
Asn_BuNH2
     RDKit          2D

 14 13  0  0  0  0  0  0  0  0999 V2000
   -3.1411   -1.7393    0.0000 N   0  0  0  0  0  0  0  0  0  0  0  0
   -3.1530   -0.2394    0.0000 C   0  0  0  0  0  0  0  0  0  0  0  0
   -1.8600    0.5209    0.0000 C   0  0  0  0  0  0  0  0  0  0  0  0
   -0.5550   -0.2187    0.0000 C   0  0  0  0  0  0  0  0  0  0  0  0
   -0.5431   -1.7187    0.0000 O   0  0  0  0  0  0  0  0  0  0  0  0
    0.7380    0.5416    0.0000 N   0  0  0  0  0  0  0  0  0  0  0  0
    2.0430   -0.1980    0.0000 C   0  0  0  0  0  0  0  0  0  0  0  0
    3.3360    0.5623    0.0000 C   0  0  0  0  0  0  0  0  0  0  0  0
    4.6410   -0.1774    0.0000 C   0  0  0  0  0  0  0  0  0  0  0  0
    5.9340    0.5829    0.0000 C   0  0  0  0  0  0  0  0  0  0  0  0
    7.2390   -0.1567    0.0000 N   0  0  0  0  0  0  0  0  0  0  0  0
   -4.4580    0.5003    0.0000 C   0  0  0  0  0  0  0  0  0  0  0  0
   -4.4699    2.0002    0.0000 O   0  0  0  0  0  0  0  0  0  0  0  0
   -5.7510   -0.2600    0.0000 O   0  0  0  0  0  0  0  0  0  0  0  0
  2  1  1  6
  2  3  1  0
  3  4  1  0
  4  5  2  0
  4  6  1  0
  6  7  1  0
  7  8  1  0
  8  9  1  0
  9 10  1  0
 10 11  1  0
  2 12  1  0
 12 13  2  0
 12 14  1  0
M  END
>  <rName>  (2221) 
Asn_BuNH2

>  <PQ_SYMBOL>  (2221) 
Asn_BuNH2

>  <FULL_NAME>  (2221) 
N4-(4-aminobutyl)-L-asparagine

>  <IUPAC_CONDENSED>  (2221) 
Asn(BuNH2)

>  <IUPAC>  (2221) 
(2S)-2-amino-3-((4-aminobutyl)carbamoyl)propanoic acid

>  <TYPE>  (2221) 
Backbone

>  <CLASS>  (2221) 
alpha

>  <ANALOG>  (2221) 
Asn

>  <MOL_WT>  (2221) 
203.24199999999996

>  <LOGP>  (2221) 
-1.3564999999999987

>  <TPSA>  (2221) 
118.44000000000001

>  <POPULARITY>  (2221) 
6.1

>  <PROTECTED>  (2221) 
TRUE

>  <SMILES>  (2221) 
N[C@@H](CC(=O)NCCCCN)C(=O)O

>  <INCHIKEY>  (2221) 
NZEJQLKTKVCSRQ-LURJTMIESA-N

$$$$
Glu_PEG3biotinyl
     RDKit          2D

 39 40  0  0  0  0  0  0  0  0999 V2000
  -17.0606    2.4120    0.0000 N   0  0  0  0  0  0  0  0  0  0  0  0
  -17.1485    0.9145    0.0000 C   0  0  0  0  0  0  0  0  0  0  0  0
  -15.8956    0.0898    0.0000 C   0  0  0  0  0  0  0  0  0  0  0  0
  -14.5549    0.7624    0.0000 C   0  0  0  0  0  0  0  0  0  0  0  0
  -13.3020   -0.0624    0.0000 C   0  0  0  0  0  0  0  0  0  0  0  0
  -13.3898   -1.5598    0.0000 O   0  0  0  0  0  0  0  0  0  0  0  0
  -11.9612    0.6103    0.0000 N   0  0  0  0  0  0  0  0  0  0  0  0
  -10.7083   -0.2145    0.0000 C   0  0  0  0  0  0  0  0  0  0  0  0
   -9.3676    0.4582    0.0000 C   0  0  0  0  0  0  0  0  0  0  0  0
   -8.1147   -0.3666    0.0000 C   0  0  0  0  0  0  0  0  0  0  0  0
   -6.7740    0.3060    0.0000 O   0  0  0  0  0  0  0  0  0  0  0  0
   -5.5211   -0.5188    0.0000 C   0  0  0  0  0  0  0  0  0  0  0  0
   -4.1804    0.1539    0.0000 C   0  0  0  0  0  0  0  0  0  0  0  0
   -2.9275   -0.6709    0.0000 O   0  0  0  0  0  0  0  0  0  0  0  0
   -1.5868    0.0018    0.0000 C   0  0  0  0  0  0  0  0  0  0  0  0
   -0.3339   -0.8230    0.0000 C   0  0  0  0  0  0  0  0  0  0  0  0
    1.0069   -0.1504    0.0000 O   0  0  0  0  0  0  0  0  0  0  0  0
    2.2598   -0.9751    0.0000 C   0  0  0  0  0  0  0  0  0  0  0  0
    3.6005   -0.3025    0.0000 C   0  0  0  0  0  0  0  0  0  0  0  0
    4.8534   -1.1273    0.0000 C   0  0  0  0  0  0  0  0  0  0  0  0
    6.1941   -0.4546    0.0000 N   0  0  0  0  0  0  0  0  0  0  0  0
    7.4470   -1.2794    0.0000 C   0  0  0  0  0  0  0  0  0  0  0  0
    7.3592   -2.7768    0.0000 O   0  0  0  0  0  0  0  0  0  0  0  0
    8.7877   -0.6067    0.0000 C   0  0  0  0  0  0  0  0  0  0  0  0
   10.0406   -1.4315    0.0000 C   0  0  0  0  0  0  0  0  0  0  0  0
   11.3813   -0.7589    0.0000 C   0  0  0  0  0  0  0  0  0  0  0  0
   12.6342   -1.5836    0.0000 C   0  0  0  0  0  0  0  0  0  0  0  0
   13.9750   -0.9110    0.0000 C   0  0  0  0  0  0  0  0  0  0  0  0
   15.3072   -1.6003    0.0000 S   0  0  0  0  0  0  0  0  0  0  0  0
   16.3744   -0.5462    0.0000 C   0  0  0  0  0  0  0  0  0  0  0  0
   15.7018    0.7945    0.0000 C   0  0  0  0  0  0  0  0  0  0  0  0
   15.9457    2.2745    0.0000 N   0  0  0  0  0  0  0  0  0  0  0  0
   14.6134    2.9638    0.0000 C   0  0  0  0  0  0  0  0  0  0  0  0
   14.3880    4.4468    0.0000 O   0  0  0  0  0  0  0  0  0  0  0  0
   13.5462    1.9098    0.0000 N   0  0  0  0  0  0  0  0  0  0  0  0
   14.2188    0.5691    0.0000 C   0  0  0  0  0  0  0  0  0  0  0  0
  -18.4892    0.2419    0.0000 C   0  0  0  0  0  0  0  0  0  0  0  0
  -18.5770   -1.2555    0.0000 O   0  0  0  0  0  0  0  0  0  0  0  0
  -19.7421    1.0667    0.0000 O   0  0  0  0  0  0  0  0  0  0  0  0
  2  1  1  1
  2  3  1  0
  3  4  1  0
  4  5  1  0
  5  6  2  0
  5  7  1  0
  7  8  1  0
  8  9  1  0
  9 10  1  0
 10 11  1  0
 11 12  1  0
 12 13  1  0
 13 14  1  0
 14 15  1  0
 15 16  1  0
 16 17  1  0
 17 18  1  0
 18 19  1  0
 19 20  1  0
 20 21  1  0
 21 22  1  0
 22 23  2  0
 22 24  1  0
 24 25  1  0
 25 26  1  0
 26 27  1  0
 28 27  1  1
 28 29  1  0
 29 30  1  0
 31 30  1  1
 31 32  1  0
 32 33  1  0
 33 34  2  0
 33 35  1  0
 36 35  1  1
  2 37  1  0
 37 38  2  0
 37 39  1  0
 36 28  1  0
 36 31  1  0
M  END
>  <rName>  (2222) 
Glu_PEG3biotinyl

>  <PQ_SYMBOL>  (2222) 
Glu_PEG3biotinyl

>  <FULL_NAME>  (2222) 
(S)-2-amino-5,21-dioxo-25-((3aS,4S,6aR)-2-oxohexahydro-1H-thieno[3,4-d]imidazol-4-yl)-10,13,16-trioxa-6,20-diazapentacosanoic acid

>  <IUPAC_CONDENSED>  (2222) 
Glu(PEG3-biotinyl)

>  <IUPAC>  (2222) 
(2S)-2-amino-4-((3-((2-((2-((3-(4-((1S,2S,5R)-7-oxo-3-thia-6,8-diazabicyclo[3.3.0]octan-2-yl)butylcarbonylamino)propyl)oxy)ethyl)oxy)ethyl)oxy)propyl)carbamoyl)butanoic acid

>  <TYPE>  (2222) 
Backbone

>  <CLASS>  (2222) 
alpha

>  <ANALOG>  (2222) 
Arg

>  <MOL_WT>  (2222) 
575.7290000000004

>  <LOGP>  (2222) 
-0.033299999999993224

>  <TPSA>  (2222) 
190.34

>  <POPULARITY>  (2222) 
2.6

>  <PROTECTED>  (2222) 
TRUE

>  <SMILES>  (2222) 
N[C@@H](CCC(=O)NCCCOCCOCCOCCCNC(=O)CCCC[C@@H]1(SC[C@@H]2(NC(=O)N[C@H]12)))C(=O)O

>  <INCHIKEY>  (2222) 
JVUXMWQRVFNDMC-MXBUBSDBSA-N

$$$$
Phe_2NO2_4CO2H
     RDKit          2D

 18 18  0  0  0  0  0  0  0  0999 V2000
   -2.2817    2.2658    0.0000 N   0  0  0  0  0  0  0  0  0  0  0  0
   -2.7617    0.8447    0.0000 C   0  0  0  0  0  0  0  0  0  0  0  0
   -1.7709   -0.2815    0.0000 C   0  0  0  0  0  0  0  0  0  0  0  0
   -0.3002    0.0134    0.0000 C   0  0  0  0  0  0  0  0  0  0  0  0
    0.1798    1.4346    0.0000 C   0  0  0  0  0  0  0  0  0  0  0  0
    1.6505    1.7295    0.0000 C   0  0  0  0  0  0  0  0  0  0  0  0
    2.6413    0.6033    0.0000 C   0  0  0  0  0  0  0  0  0  0  0  0
    2.1613   -0.8179    0.0000 C   0  0  0  0  0  0  0  0  0  0  0  0
    0.6906   -1.1128    0.0000 C   0  0  0  0  0  0  0  0  0  0  0  0
    0.2107   -2.5339    0.0000 N   0  0  0  0  0  0  0  0  0  0  0  0
   -1.2601   -2.8289    0.0000 O   0  0  0  0  0  0  0  0  0  0  0  0
    1.2014   -3.6602    0.0000 O   0  0  0  0  0  0  0  0  0  0  0  0
    4.1120    0.8982    0.0000 C   0  0  0  0  0  0  0  0  0  0  0  0
    4.5919    2.3193    0.0000 O   0  0  0  0  0  0  0  0  0  0  0  0
    5.1028   -0.2280    0.0000 O   0  0  0  0  0  0  0  0  0  0  0  0
   -4.2324    0.5498    0.0000 C   0  0  0  0  0  0  0  0  0  0  0  0
   -4.7123   -0.8714    0.0000 O   0  0  0  0  0  0  0  0  0  0  0  0
   -5.2232    1.6760    0.0000 O   0  0  0  0  0  0  0  0  0  0  0  0
  2  1  1  1
  2  3  1  0
  3  4  1  0
  4  5  1  0
  5  6  2  0
  6  7  1  0
  7  8  2  0
  8  9  1  0
  9 10  1  0
 10 11  2  0
 10 12  1  0
  7 13  1  0
 13 14  2  0
 13 15  1  0
  2 16  1  0
 16 17  2  0
 16 18  1  0
  9  4  2  0
M  CHG  2  10   1  12  -1
M  END
>  <rName>  (2223) 
Phe_2NO2_4CO2H

>  <PQ_SYMBOL>  (2223) 
Phe_2NO2_4CO2H

>  <FULL_NAME>  (2223) 
(S)-4-(2-amino-2-carboxyethyl)-3-nitrobenzoic acid

>  <IUPAC_CONDENSED>  (2223) 
Phe(2-NO2,4-CO2H)

>  <IUPAC>  (2223) 
4-((2S)-2-amino-3-hydroxy-3-oxopropyl)-3-nitrobenzene-1-carboxylic acid

>  <TYPE>  (2223) 
Backbone

>  <CLASS>  (2223) 
alpha

>  <ANALOG>  (2223) 
Phe

>  <MOL_WT>  (2223) 
254.19799999999995

>  <LOGP>  (2223) 
0.24739999999999973

>  <TPSA>  (2223) 
143.76

>  <POPULARITY>  (2223) 
2.7

>  <PROTECTED>  (2223) 
TRUE

>  <SMILES>  (2223) 
N[C@@H](Cc1(ccc(cc1[N+](=O)[O-])C(=O)O))C(=O)O

>  <INCHIKEY>  (2223) 
TUHDGYXTIWOGES-ZETCQYMHSA-N

$$$$
D-Nva_pyrid3yl
     RDKit          2D

 14 14  0  0  0  0  0  0  0  0999 V2000
   -2.7125    1.8435    0.0000 N   0  0  0  0  0  0  0  0  0  0  0  0
   -2.9490    0.3623    0.0000 C   0  0  0  0  0  0  0  0  0  0  0  0
   -1.7844   -0.5831    0.0000 C   0  0  0  0  0  0  0  0  0  0  0  0
   -0.3834   -0.0473    0.0000 C   0  0  0  0  0  0  0  0  0  0  0  0
    0.7812   -0.9927    0.0000 C   0  0  0  0  0  0  0  0  0  0  0  0
    2.1822   -0.4569    0.0000 C   0  0  0  0  0  0  0  0  0  0  0  0
    2.4187    1.0244    0.0000 C   0  0  0  0  0  0  0  0  0  0  0  0
    3.8197    1.5602    0.0000 C   0  0  0  0  0  0  0  0  0  0  0  0
    4.9842    0.6148    0.0000 C   0  0  0  0  0  0  0  0  0  0  0  0
    4.7478   -0.8664    0.0000 N   0  0  0  0  0  0  0  0  0  0  0  0
    3.3467   -1.4023    0.0000 C   0  0  0  0  0  0  0  0  0  0  0  0
   -4.3500   -0.1735    0.0000 C   0  0  0  0  0  0  0  0  0  0  0  0
   -4.5865   -1.6548    0.0000 O   0  0  0  0  0  0  0  0  0  0  0  0
   -5.5146    0.7719    0.0000 O   0  0  0  0  0  0  0  0  0  0  0  0
  2  1  1  6
  2  3  1  0
  3  4  1  0
  4  5  1  0
  5  6  1  0
  6  7  2  0
  7  8  1  0
  8  9  2  0
  9 10  1  0
 10 11  2  0
  2 12  1  0
 12 13  2  0
 12 14  1  0
 11  6  1  0
M  END
>  <rName>  (2224) 
D-Nva_pyrid3yl

>  <PQ_SYMBOL>  (2224) 
D-Nva_pyrid3yl

>  <FULL_NAME>  (2224) 
(R)-2-amino-5-(pyridin-3-yl)pentanoic acid

>  <IUPAC_CONDENSED>  (2224) 
D-Nva(pyrid-3-yl)

>  <IUPAC>  (2224) 
(2R)-2-amino-5-(pyridin-3-yl)pentanoic acid

>  <TYPE>  (2224) 
Backbone

>  <CLASS>  (2224) 
alpha

>  <ANALOG>  (2224) 
X

>  <MOL_WT>  (2224) 
194.23399999999998

>  <LOGP>  (2224) 
0.8162

>  <TPSA>  (2224) 
76.21

>  <POPULARITY>  (2224) 
4.9

>  <PROTECTED>  (2224) 
TRUE

>  <SMILES>  (2224) 
N[C@H](CCCc1(cccnc1))C(=O)O

>  <INCHIKEY>  (2224) 
SLPIROZVMARVRX-SECBINFHSA-N

$$$$
Nva_pyrid3yl
     RDKit          2D

 14 14  0  0  0  0  0  0  0  0999 V2000
   -2.7125    1.8435    0.0000 N   0  0  0  0  0  0  0  0  0  0  0  0
   -2.9490    0.3623    0.0000 C   0  0  0  0  0  0  0  0  0  0  0  0
   -1.7844   -0.5831    0.0000 C   0  0  0  0  0  0  0  0  0  0  0  0
   -0.3834   -0.0473    0.0000 C   0  0  0  0  0  0  0  0  0  0  0  0
    0.7812   -0.9927    0.0000 C   0  0  0  0  0  0  0  0  0  0  0  0
    2.1822   -0.4569    0.0000 C   0  0  0  0  0  0  0  0  0  0  0  0
    2.4187    1.0244    0.0000 C   0  0  0  0  0  0  0  0  0  0  0  0
    3.8197    1.5602    0.0000 C   0  0  0  0  0  0  0  0  0  0  0  0
    4.9842    0.6148    0.0000 C   0  0  0  0  0  0  0  0  0  0  0  0
    4.7478   -0.8664    0.0000 N   0  0  0  0  0  0  0  0  0  0  0  0
    3.3467   -1.4023    0.0000 C   0  0  0  0  0  0  0  0  0  0  0  0
   -4.3500   -0.1735    0.0000 C   0  0  0  0  0  0  0  0  0  0  0  0
   -4.5865   -1.6548    0.0000 O   0  0  0  0  0  0  0  0  0  0  0  0
   -5.5146    0.7719    0.0000 O   0  0  0  0  0  0  0  0  0  0  0  0
  2  1  1  1
  2  3  1  0
  3  4  1  0
  4  5  1  0
  5  6  1  0
  6  7  2  0
  7  8  1  0
  8  9  2  0
  9 10  1  0
 10 11  2  0
  2 12  1  0
 12 13  2  0
 12 14  1  0
 11  6  1  0
M  END
>  <rName>  (2225) 
Nva_pyrid3yl

>  <PQ_SYMBOL>  (2225) 
Nva_pyrid3yl

>  <FULL_NAME>  (2225) 
(S)-2-amino-5-(pyridin-3-yl)pentanoic acid

>  <IUPAC_CONDENSED>  (2225) 
Nva(pyrid-3-yl)

>  <IUPAC>  (2225) 
(2S)-2-amino-5-(pyridin-3-yl)pentanoic acid

>  <TYPE>  (2225) 
Backbone

>  <CLASS>  (2225) 
alpha

>  <ANALOG>  (2225) 
X

>  <MOL_WT>  (2225) 
194.23399999999998

>  <LOGP>  (2225) 
0.8162

>  <TPSA>  (2225) 
76.21

>  <POPULARITY>  (2225) 
5.3

>  <PROTECTED>  (2225) 
TRUE

>  <SMILES>  (2225) 
N[C@@H](CCCc1(cccnc1))C(=O)O

>  <INCHIKEY>  (2225) 
SLPIROZVMARVRX-VIFPVBQESA-N

$$$$
Asp_pyrrol1yl
     RDKit          2D

 13 13  0  0  0  0  0  0  0  0999 V2000
   -2.3085   -1.7723    0.0000 N   0  0  0  0  0  0  0  0  0  0  0  0
   -2.0887   -0.2885    0.0000 C   0  0  0  0  0  0  0  0  0  0  0  0
   -0.6937    0.2630    0.0000 C   0  0  0  0  0  0  0  0  0  0  0  0
    0.4814   -0.6693    0.0000 C   0  0  0  0  0  0  0  0  0  0  0  0
    0.2615   -2.1531    0.0000 O   0  0  0  0  0  0  0  0  0  0  0  0
    1.8763   -0.1178    0.0000 N   0  0  0  0  0  0  0  0  0  0  0  0
    3.1424   -0.9222    0.0000 C   0  0  0  0  0  0  0  0  0  0  0  0
    4.2986    0.0334    0.0000 C   0  0  0  0  0  0  0  0  0  0  0  0
    3.7471    1.4284    0.0000 C   0  0  0  0  0  0  0  0  0  0  0  0
    2.2500    1.3349    0.0000 C   0  0  0  0  0  0  0  0  0  0  0  0
   -3.2638    0.6438    0.0000 C   0  0  0  0  0  0  0  0  0  0  0  0
   -3.0439    2.1276    0.0000 O   0  0  0  0  0  0  0  0  0  0  0  0
   -4.6587    0.0923    0.0000 O   0  0  0  0  0  0  0  0  0  0  0  0
  2  1  1  6
  2  3  1  0
  3  4  1  0
  4  5  2  0
  4  6  1  0
  6  7  1  0
  7  8  1  0
  8  9  1  0
  9 10  1  0
  2 11  1  0
 11 12  2  0
 11 13  1  0
 10  6  1  0
M  END
>  <rName>  (2226) 
Asp_pyrrol1yl

>  <PQ_SYMBOL>  (2226) 
Asp_pyrrol1yl

>  <FULL_NAME>  (2226) 
(S)-2-amino-4-oxo-4-(pyrrolidin-1-yl)butanoic acid

>  <IUPAC_CONDENSED>  (2226) 
Asp(pyrrol-1-yl)

>  <IUPAC>  (2226) 
(2S)-2-amino-4-oxo-4-(pyrrolidin-1-yl)butanoic acid

>  <TYPE>  (2226) 
Backbone

>  <CLASS>  (2226) 
alpha

>  <ANALOG>  (2226) 
X

>  <MOL_WT>  (2226) 
186.21099999999998

>  <LOGP>  (2226) 
-0.5892000000000004

>  <TPSA>  (2226) 
83.63000000000001

>  <POPULARITY>  (2226) 
6.3

>  <PROTECTED>  (2226) 
TRUE

>  <SMILES>  (2226) 
N[C@@H](CC(=O)N1(CCCC1))C(=O)O

>  <INCHIKEY>  (2226) 
DAGPZPSRHYOWMZ-LURJTMIESA-N

$$$$
D-Nle_SH
     RDKit          2D

 10  9  0  0  0  0  0  0  0  0999 V2000
   -1.4166    1.8843    0.0000 N   0  0  0  0  0  0  0  0  0  0  0  0
   -1.4265    0.3844    0.0000 C   0  0  0  0  0  0  0  0  0  0  0  0
   -0.1324   -0.3741    0.0000 C   0  0  0  0  0  0  0  0  0  0  0  0
    1.1716    0.3673    0.0000 C   0  0  0  0  0  0  0  0  0  0  0  0
    2.4657   -0.3912    0.0000 C   0  0  0  0  0  0  0  0  0  0  0  0
    3.7696    0.3503    0.0000 C   0  0  0  0  0  0  0  0  0  0  0  0
    5.0637   -0.4082    0.0000 S   0  0  0  0  0  0  0  0  0  0  0  0
   -2.7304   -0.3571    0.0000 C   0  0  0  0  0  0  0  0  0  0  0  0
   -2.7402   -1.8571    0.0000 O   0  0  0  0  0  0  0  0  0  0  0  0
   -4.0245    0.4014    0.0000 O   0  0  0  0  0  0  0  0  0  0  0  0
  2  1  1  6
  2  3  1  0
  3  4  1  0
  4  5  1  0
  5  6  1  0
  6  7  1  0
  2  8  1  0
  8  9  2  0
  8 10  1  0
M  END
>  <rName>  (2227) 
D-Nle_SH

>  <PQ_SYMBOL>  (2227) 
D-Nle_SH

>  <FULL_NAME>  (2227) 
(R)-2-amino-6-mercaptohexanoic acid

>  <IUPAC_CONDENSED>  (2227) 
D-Nle(SH)

>  <IUPAC>  (2227) 
(2R)-2-amino-6-sulfanylhexanoic acid

>  <TYPE>  (2227) 
Backbone

>  <CLASS>  (2227) 
alpha

>  <ANALOG>  (2227) 
X

>  <MOL_WT>  (2227) 
163.24200000000002

>  <LOGP>  (2227) 
0.49839999999999995

>  <TPSA>  (2227) 
63.32000000000001

>  <POPULARITY>  (2227) 
6.9

>  <PROTECTED>  (2227) 
TRUE

>  <SMILES>  (2227) 
N[C@H](CCCCS)C(=O)O

>  <INCHIKEY>  (2227) 
HBMWPJLCTYKAGL-RXMQYKEDSA-N

$$$$
3Pal_2Cl_6NH2
     RDKit          2D

 14 14  0  0  0  0  0  0  0  0999 V2000
   -1.7174    1.8436    0.0000 N   0  0  0  0  0  0  0  0  0  0  0  0
   -2.1036    0.3942    0.0000 C   0  0  0  0  0  0  0  0  0  0  0  0
   -1.0414   -0.6650    0.0000 C   0  0  0  0  0  0  0  0  0  0  0  0
    0.4069   -0.2747    0.0000 C   0  0  0  0  0  0  0  0  0  0  0  0
    0.7931    1.1747    0.0000 C   0  0  0  0  0  0  0  0  0  0  0  0
    2.2415    1.5649    0.0000 C   0  0  0  0  0  0  0  0  0  0  0  0
    3.3036    0.5057    0.0000 C   0  0  0  0  0  0  0  0  0  0  0  0
    4.7520    0.8960    0.0000 N   0  0  0  0  0  0  0  0  0  0  0  0
    2.9174   -0.9437    0.0000 N   0  0  0  0  0  0  0  0  0  0  0  0
    1.4691   -1.3339    0.0000 C   0  0  0  0  0  0  0  0  0  0  0  0
    1.0829   -2.7834    0.0000 Cl  0  0  0  0  0  0  0  0  0  0  0  0
   -3.5519    0.0039    0.0000 C   0  0  0  0  0  0  0  0  0  0  0  0
   -3.9381   -1.4455    0.0000 O   0  0  0  0  0  0  0  0  0  0  0  0
   -4.6140    1.0631    0.0000 O   0  0  0  0  0  0  0  0  0  0  0  0
  2  1  1  1
  2  3  1  0
  3  4  1  0
  4  5  1  0
  5  6  2  0
  6  7  1  0
  7  8  1  0
  7  9  2  0
  9 10  1  0
 10 11  1  0
  2 12  1  0
 12 13  2  0
 12 14  1  0
 10  4  2  0
M  END
>  <rName>  (2228) 
3Pal_2Cl_6NH2

>  <PQ_SYMBOL>  (2228) 
3Pal_2Cl_6NH2

>  <FULL_NAME>  (2228) 
(S)-2-amino-3-(6-amino-2-chloropyridin-3-yl)propanoic acid

>  <IUPAC_CONDENSED>  (2228) 
3Pal(2-Cl,6-NH2)

>  <IUPAC>  (2228) 
(2S)-2-amino-3-(6-amino-2-chloropyridin-3-yl)propanoic acid

>  <TYPE>  (2228) 
Backbone

>  <CLASS>  (2228) 
alpha

>  <ANALOG>  (2228) 
Phe

>  <MOL_WT>  (2228) 
215.64

>  <LOGP>  (2228) 
0.2716000000000001

>  <TPSA>  (2228) 
102.23

>  <POPULARITY>  (2228) 
2.2

>  <PROTECTED>  (2228) 
TRUE

>  <SMILES>  (2228) 
N[C@@H](Cc1(ccc(N)nc1Cl))C(=O)O

>  <INCHIKEY>  (2228) 
CQRBJGYRMCJJHF-YFKPBYRVSA-N

$$$$
D-aMeNle_EtN3
     RDKit          2D

 15 14  0  0  0  0  0  0  0  0999 V2000
   -2.8040    1.8332    0.0000 N   0  0  0  0  0  0  0  0  0  0  0  0
   -3.6318    0.5823    0.0000 C   0  0  0  0  0  0  0  0  0  0  0  0
   -4.8827    1.4101    0.0000 C   0  0  0  0  0  0  0  0  0  0  0  0
   -2.3809   -0.2455    0.0000 C   0  0  0  0  0  0  0  0  0  0  0  0
   -1.0385    0.4239    0.0000 C   0  0  0  0  0  0  0  0  0  0  0  0
    0.2124   -0.4039    0.0000 C   0  0  0  0  0  0  0  0  0  0  0  0
    1.5547    0.2655    0.0000 C   0  0  0  0  0  0  0  0  0  0  0  0
    2.8056   -0.5623    0.0000 C   0  0  0  0  0  0  0  0  0  0  0  0
    4.1480    0.1071    0.0000 C   0  0  0  0  0  0  0  0  0  0  0  0
    5.3989   -0.7207    0.0000 N   0  0  0  0  0  0  0  0  0  0  0  0
    6.7412   -0.0513    0.0000 N   0  0  0  0  0  0  0  0  0  0  0  0
    8.0836    0.6181    0.0000 N   0  0  0  0  0  0  0  0  0  0  0  0
   -4.4596   -0.6686    0.0000 C   0  0  0  0  0  0  0  0  0  0  0  0
   -5.9568   -0.5772    0.0000 O   0  0  0  0  0  0  0  0  0  0  0  0
   -3.7902   -2.0109    0.0000 O   0  0  0  0  0  0  0  0  0  0  0  0
  1  2  1  0
  2  3  1  1
  2  4  1  0
  4  5  1  0
  5  6  1  0
  6  7  1  0
  7  8  1  0
  8  9  1  0
  9 10  1  0
 10 11  2  0
 11 12  2  0
  2 13  1  0
 13 14  2  0
 13 15  1  0
M  CHG  2  11   1  12  -1
M  END
>  <rName>  (2229) 
D-aMeNle_EtN3

>  <PQ_SYMBOL>  (2229) 
D-aMeNle_EtN3

>  <FULL_NAME>  (2229) 
(R)-2-amino-8-azido-2-methyloctanoic acid

>  <IUPAC_CONDENSED>  (2229) 
D-aMeNle(EtN3)

>  <IUPAC>  (2229) 
(2R)-2-amino-8-azido-2-methyloctanoic acid

>  <TYPE>  (2229) 
Backbone

>  <CLASS>  (2229) 
alpha

>  <ANALOG>  (2229) 
X

>  <MOL_WT>  (2229) 
214.269

>  <LOGP>  (2229) 
2.0492

>  <TPSA>  (2229) 
112.08

>  <POPULARITY>  (2229) 
3.2

>  <PROTECTED>  (2229) 
TRUE

>  <SMILES>  (2229) 
N[C@](C)(CCCCCCN=[N+]=[N-])C(=O)O

>  <INCHIKEY>  (2229) 
DVEQXGJGDKTTJF-SECBINFHSA-N

$$$$
Ala_pyrazol4yl_1Me_5NH2
     RDKit          2D

 13 13  0  0  0  0  0  0  0  0999 V2000
   -1.1346    1.5258    0.0000 N   0  0  0  0  0  0  0  0  0  0  0  0
   -1.6949    0.1343    0.0000 C   0  0  0  0  0  0  0  0  0  0  0  0
   -0.7699   -1.0466    0.0000 C   0  0  0  0  0  0  0  0  0  0  0  0
    0.7152   -0.8360    0.0000 C   0  0  0  0  0  0  0  0  0  0  0  0
    1.7585   -1.9138    0.0000 C   0  0  0  0  0  0  0  0  0  0  0  0
    3.1059   -1.2546    0.0000 N   0  0  0  0  0  0  0  0  0  0  0  0
    2.8954    0.2305    0.0000 N   0  0  0  0  0  0  0  0  0  0  0  0
    3.9731    1.2738    0.0000 C   0  0  0  0  0  0  0  0  0  0  0  0
    1.4178    0.4892    0.0000 C   0  0  0  0  0  0  0  0  0  0  0  0
    0.7586    1.8366    0.0000 N   0  0  0  0  0  0  0  0  0  0  0  0
   -3.1800   -0.0762    0.0000 C   0  0  0  0  0  0  0  0  0  0  0  0
   -3.7402   -1.4677    0.0000 O   0  0  0  0  0  0  0  0  0  0  0  0
   -4.1049    1.1047    0.0000 O   0  0  0  0  0  0  0  0  0  0  0  0
  2  1  1  1
  2  3  1  0
  3  4  1  0
  4  5  1  0
  5  6  2  0
  6  7  1  0
  7  8  1  0
  7  9  1  0
  9 10  1  0
  2 11  1  0
 11 12  2  0
 11 13  1  0
  9  4  2  0
M  END
>  <rName>  (2230) 
Ala_pyrazol4yl_1Me_5NH2

>  <PQ_SYMBOL>  (2230) 
Ala_pyrazol4yl_1Me_5NH2

>  <FULL_NAME>  (2230) 
(S)-2-amino-3-(5-amino-1-methyl-1H-pyrazol-4-yl)propanoic acid

>  <IUPAC_CONDENSED>  (2230) 
Ala(pyrazol-4-yl(1-Me,5-NH2))

>  <IUPAC>  (2230) 
(2S)-2-amino-3-(5-amino-1-methyl-1H-pyrazol-4-yl)propanoic acid

>  <TYPE>  (2230) 
Backbone

>  <CLASS>  (2230) 
alpha

>  <ANALOG>  (2230) 
Phe

>  <MOL_WT>  (2230) 
184.19899999999998

>  <LOGP>  (2230) 
-1.043299999999999

>  <TPSA>  (2230) 
107.16000000000001

>  <POPULARITY>  (2230) 
6.2

>  <PROTECTED>  (2230) 
TRUE

>  <SMILES>  (2230) 
N[C@@H](Cc1(cnn(C)c1N))C(=O)O

>  <INCHIKEY>  (2230) 
LAHFHLKXFRIOGZ-YFKPBYRVSA-N

$$$$
Ala_Ph_34diCH2NHMe
     RDKit          2D

 15 16  0  0  0  0  0  0  0  0999 V2000
    2.4169   -1.6715    0.0000 N   0  0  0  0  0  0  0  0  0  0  0  0
    2.6919   -0.1969    0.0000 C   0  0  0  0  0  0  0  0  0  0  0  0
    1.5524    0.7786    0.0000 C   0  0  0  0  0  0  0  0  0  0  0  0
    0.1379    0.2795    0.0000 C   0  0  0  0  0  0  0  0  0  0  0  0
   -0.1372   -1.1951    0.0000 C   0  0  0  0  0  0  0  0  0  0  0  0
   -1.5517   -1.6942    0.0000 C   0  0  0  0  0  0  0  0  0  0  0  0
   -2.6912   -0.7188    0.0000 C   0  0  0  0  0  0  0  0  0  0  0  0
   -4.1786   -0.9129    0.0000 C   0  0  0  0  0  0  0  0  0  0  0  0
   -4.8228    0.4417    0.0000 N   0  0  0  0  0  0  0  0  0  0  0  0
   -3.7336    1.4730    0.0000 C   0  0  0  0  0  0  0  0  0  0  0  0
   -2.4162    0.7558    0.0000 C   0  0  0  0  0  0  0  0  0  0  0  0
   -1.0016    1.2549    0.0000 C   0  0  0  0  0  0  0  0  0  0  0  0
    4.1064    0.3022    0.0000 C   0  0  0  0  0  0  0  0  0  0  0  0
    4.3814    1.7768    0.0000 O   0  0  0  0  0  0  0  0  0  0  0  0
    5.2459   -0.6732    0.0000 O   0  0  0  0  0  0  0  0  0  0  0  0
  2  1  1  1
  2  3  1  0
  3  4  1  0
  4  5  1  0
  5  6  2  0
  6  7  1  0
  7  8  1  0
  8  9  1  0
  9 10  1  0
 10 11  1  0
 11 12  1  0
  2 13  1  0
 13 14  2  0
 13 15  1  0
 11  7  2  0
 12  4  2  0
M  END
>  <rName>  (2231) 
Ala_Ph_34diCH2NHMe

>  <PQ_SYMBOL>  (2231) 
Ala_Ph_34diCH2NHMe

>  <FULL_NAME>  (2231) 
(S)-2-amino-3-(isoindolin-5-yl)propanoic acid

>  <IUPAC_CONDENSED>  (2231) 
Ala(Ph(3,4-diCH2NHMe))

>  <IUPAC>  (2231) 
(2S)-2-amino-3-(8-azabicyclo[4.3.0]nona-1,3,5-trien-3-yl)propanoic acid

>  <TYPE>  (2231) 
Backbone

>  <CLASS>  (2231) 
alpha

>  <ANALOG>  (2231) 
Phe

>  <MOL_WT>  (2231) 
206.24499999999998

>  <LOGP>  (2231) 
0.24419999999999975

>  <TPSA>  (2231) 
75.35

>  <POPULARITY>  (2231) 
3

>  <PROTECTED>  (2231) 
TRUE

>  <SMILES>  (2231) 
N[C@@H](Cc2(ccc1(CNCc1c2)))C(=O)O

>  <INCHIKEY>  (2231) 
OXHRSLMZUZPZFR-JTQLQIEISA-N

$$$$
Trp_4Aza_5OMe
     RDKit          2D

 17 18  0  0  0  0  0  0  0  0999 V2000
   -3.5469   -1.3812    0.0000 N   0  0  0  0  0  0  0  0  0  0  0  0
   -3.1708    0.0709    0.0000 C   0  0  0  0  0  0  0  0  0  0  0  0
   -1.7252    0.4712    0.0000 C   0  0  0  0  0  0  0  0  0  0  0  0
   -0.6557   -0.5805    0.0000 C   0  0  0  0  0  0  0  0  0  0  0  0
   -0.8780   -2.0640    0.0000 C   0  0  0  0  0  0  0  0  0  0  0  0
    0.4642   -2.7337    0.0000 N   0  0  0  0  0  0  0  0  0  0  0  0
    1.5159   -1.6643    0.0000 C   0  0  0  0  0  0  0  0  0  0  0  0
    3.0145   -1.7302    0.0000 C   0  0  0  0  0  0  0  0  0  0  0  0
    3.8209   -0.4654    0.0000 C   0  0  0  0  0  0  0  0  0  0  0  0
    3.1288    0.8653    0.0000 C   0  0  0  0  0  0  0  0  0  0  0  0
    3.9352    2.1301    0.0000 O   0  0  0  0  0  0  0  0  0  0  0  0
    5.4337    2.0641    0.0000 C   0  0  0  0  0  0  0  0  0  0  0  0
    1.6302    0.9313    0.0000 N   0  0  0  0  0  0  0  0  0  0  0  0
    0.8238   -0.3335    0.0000 C   0  0  0  0  0  0  0  0  0  0  0  0
   -4.2403    1.1227    0.0000 C   0  0  0  0  0  0  0  0  0  0  0  0
   -3.8642    2.5748    0.0000 O   0  0  0  0  0  0  0  0  0  0  0  0
   -5.6859    0.7223    0.0000 O   0  0  0  0  0  0  0  0  0  0  0  0
  2  1  1  6
  2  3  1  0
  3  4  1  0
  4  5  2  0
  5  6  1  0
  6  7  1  0
  7  8  1  0
  8  9  2  0
  9 10  1  0
 10 11  1  0
 11 12  1  0
 10 13  2  0
 13 14  1  0
  2 15  1  0
 15 16  2  0
 15 17  1  0
 14  7  2  0
 14  4  1  0
M  END
>  <rName>  (2232) 
Trp_4Aza_5OMe

>  <PQ_SYMBOL>  (2232) 
Trp_4Aza_5OMe

>  <FULL_NAME>  (2232) 
(S)-2-amino-3-(5-methoxy-1H-pyrrolo[3,2-b]pyridin-3-yl)propanoic acid

>  <IUPAC_CONDENSED>  (2232) 
Trp(4-Aza,5-OMe)

>  <IUPAC>  (2232) 
(2S)-2-amino-3-(3-methoxy-2,7-diazabicyclo[4.3.0]nona-1,3,5,8-tetraen-9-yl)propanoic acid

>  <TYPE>  (2232) 
Backbone

>  <CLASS>  (2232) 
alpha

>  <ANALOG>  (2232) 
Phe

>  <MOL_WT>  (2232) 
235.24299999999997

>  <LOGP>  (2232) 
0.5259000000000003

>  <TPSA>  (2232) 
101.23

>  <POPULARITY>  (2232) 
2.3

>  <PROTECTED>  (2232) 
TRUE

>  <SMILES>  (2232) 
N[C@@H](Cc2(c[nH]c1(ccc(OC)nc12)))C(=O)O

>  <INCHIKEY>  (2232) 
VUEWDUUANSVCOW-ZETCQYMHSA-N

$$$$
Phe_3F_4MeOH
     RDKit          2D

 15 15  0  0  0  0  0  0  0  0999 V2000
   -2.3798    1.6931    0.0000 N   0  0  0  0  0  0  0  0  0  0  0  0
   -2.6978    0.2272    0.0000 C   0  0  0  0  0  0  0  0  0  0  0  0
   -1.5874   -0.7812    0.0000 C   0  0  0  0  0  0  0  0  0  0  0  0
   -0.1588   -0.3237    0.0000 C   0  0  0  0  0  0  0  0  0  0  0  0
    0.1592    1.1422    0.0000 C   0  0  0  0  0  0  0  0  0  0  0  0
    1.5877    1.5997    0.0000 C   0  0  0  0  0  0  0  0  0  0  0  0
    2.6982    0.5914    0.0000 C   0  0  0  0  0  0  0  0  0  0  0  0
    4.1267    1.0489    0.0000 C   0  0  0  0  0  0  0  0  0  0  0  0
    5.2372    0.0405    0.0000 O   0  0  0  0  0  0  0  0  0  0  0  0
    2.3802   -0.8745    0.0000 C   0  0  0  0  0  0  0  0  0  0  0  0
    3.4906   -1.8829    0.0000 F   0  0  0  0  0  0  0  0  0  0  0  0
    0.9516   -1.3321    0.0000 C   0  0  0  0  0  0  0  0  0  0  0  0
   -4.1264   -0.2303    0.0000 C   0  0  0  0  0  0  0  0  0  0  0  0
   -4.4444   -1.6962    0.0000 O   0  0  0  0  0  0  0  0  0  0  0  0
   -5.2369    0.7780    0.0000 O   0  0  0  0  0  0  0  0  0  0  0  0
  2  1  1  1
  2  3  1  0
  3  4  1  0
  4  5  1  0
  5  6  2  0
  6  7  1  0
  7  8  1  0
  8  9  1  0
  7 10  2  0
 10 11  1  0
 10 12  1  0
  2 13  1  0
 13 14  2  0
 13 15  1  0
 12  4  2  0
M  END
>  <rName>  (2233) 
Phe_3F_4MeOH

>  <PQ_SYMBOL>  (2233) 
Phe_3F_4MeOH

>  <FULL_NAME>  (2233) 
(S)-2-amino-3-(3-fluoro-4-(hydroxymethyl)phenyl)propanoic acid

>  <IUPAC_CONDENSED>  (2233) 
Phe(3-F,4-MeOH)

>  <IUPAC>  (2233) 
(2S)-2-amino-3-(3-fluoro-4-(hydroxymethyl)phenyl)propanoic acid

>  <TYPE>  (2233) 
Backbone

>  <CLASS>  (2233) 
alpha

>  <ANALOG>  (2233) 
Phe

>  <MOL_WT>  (2233) 
213.20799999999997

>  <LOGP>  (2233) 
0.27239999999999975

>  <TPSA>  (2233) 
83.55

>  <POPULARITY>  (2233) 
2.8

>  <PROTECTED>  (2233) 
TRUE

>  <SMILES>  (2233) 
N[C@@H](Cc1(ccc(CO)c(F)c1))C(=O)O

>  <INCHIKEY>  (2233) 
AWXWQDZKYLHZKQ-VIFPVBQESA-N

$$$$
Phe_3OCHF2_4F
     RDKit          2D

 17 17  0  0  0  0  0  0  0  0999 V2000
   -3.1880    1.5144    0.0000 N   0  0  0  0  0  0  0  0  0  0  0  0
   -3.0679    0.0192    0.0000 C   0  0  0  0  0  0  0  0  0  0  0  0
   -1.7130   -0.6244    0.0000 C   0  0  0  0  0  0  0  0  0  0  0  0
   -0.4782    0.2272    0.0000 C   0  0  0  0  0  0  0  0  0  0  0  0
   -0.5983    1.7223    0.0000 C   0  0  0  0  0  0  0  0  0  0  0  0
    0.6366    2.5739    0.0000 C   0  0  0  0  0  0  0  0  0  0  0  0
    1.9915    1.9303    0.0000 C   0  0  0  0  0  0  0  0  0  0  0  0
    3.2263    2.7819    0.0000 F   0  0  0  0  0  0  0  0  0  0  0  0
    2.1115    0.4351    0.0000 C   0  0  0  0  0  0  0  0  0  0  0  0
    3.4664   -0.2085    0.0000 O   0  0  0  0  0  0  0  0  0  0  0  0
    3.5865   -1.7037    0.0000 C   0  0  0  0  0  0  0  0  0  0  0  0
    4.9414   -2.3473    0.0000 F   0  0  0  0  0  0  0  0  0  0  0  0
    2.3517   -2.5552    0.0000 F   0  0  0  0  0  0  0  0  0  0  0  0
    0.8767   -0.4165    0.0000 C   0  0  0  0  0  0  0  0  0  0  0  0
   -4.3028   -0.8324    0.0000 C   0  0  0  0  0  0  0  0  0  0  0  0
   -4.1827   -2.3276    0.0000 O   0  0  0  0  0  0  0  0  0  0  0  0
   -5.6577   -0.1888    0.0000 O   0  0  0  0  0  0  0  0  0  0  0  0
  2  1  1  1
  2  3  1  0
  3  4  1  0
  4  5  1  0
  5  6  2  0
  6  7  1  0
  7  8  1  0
  7  9  2  0
  9 10  1  0
 10 11  1  0
 11 12  1  0
 11 13  1  0
  9 14  1  0
  2 15  1  0
 15 16  2  0
 15 17  1  0
 14  4  2  0
M  END
>  <rName>  (2234) 
Phe_3OCHF2_4F

>  <PQ_SYMBOL>  (2234) 
Phe_3OCHF2_4F

>  <FULL_NAME>  (2234) 
(S)-2-amino-3-(3-(difluoromethoxy)-4-fluorophenyl)propanoic acid

>  <IUPAC_CONDENSED>  (2234) 
Phe(3-OCHF2,4-F)

>  <IUPAC>  (2234) 
(2S)-2-amino-3-(3-((difluoromethyl)oxy)-4-fluorophenyl)propanoic acid

>  <TYPE>  (2234) 
Backbone

>  <CLASS>  (2234) 
alpha

>  <ANALOG>  (2234) 
Tyr

>  <MOL_WT>  (2234) 
249.18799999999996

>  <LOGP>  (2234) 
1.3815000000000002

>  <TPSA>  (2234) 
72.55

>  <POPULARITY>  (2234) 
2.6

>  <PROTECTED>  (2234) 
TRUE

>  <SMILES>  (2234) 
N[C@@H](Cc1(ccc(F)c(OC(F)F)c1))C(=O)O

>  <INCHIKEY>  (2234) 
RDPVMHDQTGWICK-ZETCQYMHSA-N

$$$$
Phe_2OMe_4CO2H
     RDKit          2D

 17 17  0  0  0  0  0  0  0  0999 V2000
   -2.4200    2.0251    0.0000 N   0  0  0  0  0  0  0  0  0  0  0  0
   -2.8555    0.5897    0.0000 C   0  0  0  0  0  0  0  0  0  0  0  0
   -1.8302   -0.5051    0.0000 C   0  0  0  0  0  0  0  0  0  0  0  0
   -0.3693   -0.1646    0.0000 C   0  0  0  0  0  0  0  0  0  0  0  0
    0.0661    1.2708    0.0000 C   0  0  0  0  0  0  0  0  0  0  0  0
    1.5270    1.6114    0.0000 C   0  0  0  0  0  0  0  0  0  0  0  0
    2.5523    0.5166    0.0000 C   0  0  0  0  0  0  0  0  0  0  0  0
    2.1168   -0.9188    0.0000 C   0  0  0  0  0  0  0  0  0  0  0  0
    0.6560   -1.2594    0.0000 C   0  0  0  0  0  0  0  0  0  0  0  0
    0.2205   -2.6948    0.0000 O   0  0  0  0  0  0  0  0  0  0  0  0
    1.2459   -3.7896    0.0000 C   0  0  0  0  0  0  0  0  0  0  0  0
    4.0131    0.8571    0.0000 C   0  0  0  0  0  0  0  0  0  0  0  0
    4.4486    2.2925    0.0000 O   0  0  0  0  0  0  0  0  0  0  0  0
    5.0385   -0.2377    0.0000 O   0  0  0  0  0  0  0  0  0  0  0  0
   -4.3163    0.2491    0.0000 C   0  0  0  0  0  0  0  0  0  0  0  0
   -4.7518   -1.1863    0.0000 O   0  0  0  0  0  0  0  0  0  0  0  0
   -5.3417    1.3440    0.0000 O   0  0  0  0  0  0  0  0  0  0  0  0
  2  1  1  1
  2  3  1  0
  3  4  1  0
  4  5  1  0
  5  6  2  0
  6  7  1  0
  7  8  2  0
  8  9  1  0
  9 10  1  0
 10 11  1  0
  7 12  1  0
 12 13  2  0
 12 14  1  0
  2 15  1  0
 15 16  2  0
 15 17  1  0
  9  4  2  0
M  END
>  <rName>  (2235) 
Phe_2OMe_4CO2H

>  <PQ_SYMBOL>  (2235) 
Phe_2OMe_4CO2H

>  <FULL_NAME>  (2235) 
(S)-4-(2-amino-2-carboxyethyl)-3-methoxybenzoic acid

>  <IUPAC_CONDENSED>  (2235) 
Phe(2-OMe,4-CO2H)

>  <IUPAC>  (2235) 
4-((2S)-2-amino-3-hydroxy-3-oxopropyl)-3-methoxybenzene-1-carboxylic acid

>  <TYPE>  (2235) 
Backbone

>  <CLASS>  (2235) 
alpha

>  <ANALOG>  (2235) 
Tyr

>  <MOL_WT>  (2235) 
239.22699999999995

>  <LOGP>  (2235) 
0.3478

>  <TPSA>  (2235) 
109.85000000000001

>  <POPULARITY>  (2235) 
2.5

>  <PROTECTED>  (2235) 
TRUE

>  <SMILES>  (2235) 
N[C@@H](Cc1(ccc(cc1OC)C(=O)O))C(=O)O

>  <INCHIKEY>  (2235) 
CZIBHXBFGQRHCH-QMMMGPOBSA-N

$$$$
Phe_2CO2H_3Cl
     RDKit          2D

 16 16  0  0  0  0  0  0  0  0999 V2000
   -2.3721    1.9001    0.0000 N   0  0  0  0  0  0  0  0  0  0  0  0
   -2.3583    0.4002    0.0000 C   0  0  0  0  0  0  0  0  0  0  0  0
   -1.0524   -0.3378    0.0000 C   0  0  0  0  0  0  0  0  0  0  0  0
    0.2397    0.4241    0.0000 C   0  0  0  0  0  0  0  0  0  0  0  0
    0.2259    1.9240    0.0000 C   0  0  0  0  0  0  0  0  0  0  0  0
    1.5180    2.6860    0.0000 C   0  0  0  0  0  0  0  0  0  0  0  0
    2.8238    1.9479    0.0000 C   0  0  0  0  0  0  0  0  0  0  0  0
    2.8376    0.4480    0.0000 C   0  0  0  0  0  0  0  0  0  0  0  0
    4.1435   -0.2900    0.0000 Cl  0  0  0  0  0  0  0  0  0  0  0  0
    1.5456   -0.3139    0.0000 C   0  0  0  0  0  0  0  0  0  0  0  0
    1.5594   -1.8139    0.0000 C   0  0  0  0  0  0  0  0  0  0  0  0
    0.2673   -2.5758    0.0000 O   0  0  0  0  0  0  0  0  0  0  0  0
    2.8653   -2.5519    0.0000 O   0  0  0  0  0  0  0  0  0  0  0  0
   -3.6504   -0.3617    0.0000 C   0  0  0  0  0  0  0  0  0  0  0  0
   -3.6366   -1.8617    0.0000 O   0  0  0  0  0  0  0  0  0  0  0  0
   -4.9563    0.3763    0.0000 O   0  0  0  0  0  0  0  0  0  0  0  0
  2  1  1  1
  2  3  1  0
  3  4  1  0
  4  5  2  0
  5  6  1  0
  6  7  2  0
  7  8  1  0
  8  9  1  0
  8 10  2  0
 10 11  1  0
 11 12  2  0
 11 13  1  0
  2 14  1  0
 14 15  2  0
 14 16  1  0
 10  4  1  0
M  END
>  <rName>  (2236) 
Phe_2CO2H_3Cl

>  <PQ_SYMBOL>  (2236) 
Phe_2CO2H_3Cl

>  <FULL_NAME>  (2236) 
(S)-2-(2-amino-2-carboxyethyl)-6-chlorobenzoic acid

>  <IUPAC_CONDENSED>  (2236) 
Phe(2-CO2H,3-Cl)

>  <IUPAC>  (2236) 
2-((2S)-2-amino-3-hydroxy-3-oxopropyl)-6-chlorobenzene-1-carboxylic acid

>  <TYPE>  (2236) 
Backbone

>  <CLASS>  (2236) 
alpha

>  <ANALOG>  (2236) 
Phe

>  <MOL_WT>  (2236) 
243.64599999999996

>  <LOGP>  (2236) 
0.9926000000000001

>  <TPSA>  (2236) 
100.62000000000002

>  <POPULARITY>  (2236) 
2.4

>  <PROTECTED>  (2236) 
TRUE

>  <SMILES>  (2236) 
N[C@@H](Cc1(cccc(Cl)c1C(=O)O))C(=O)O

>  <INCHIKEY>  (2236) 
DOKOVFFDBTVHSV-ZETCQYMHSA-N

$$$$
Phe_2Cl_5CN
     RDKit          2D

 15 15  0  0  0  0  0  0  0  0999 V2000
    1.3277   -1.8350    0.0000 N   0  0  0  0  0  0  0  0  0  0  0  0
    2.0935   -0.5452    0.0000 C   0  0  0  0  0  0  0  0  0  0  0  0
    1.3594    0.7629    0.0000 C   0  0  0  0  0  0  0  0  0  0  0  0
   -0.1405    0.7812    0.0000 C   0  0  0  0  0  0  0  0  0  0  0  0
   -0.9063   -0.5086    0.0000 C   0  0  0  0  0  0  0  0  0  0  0  0
   -2.4062   -0.4903    0.0000 C   0  0  0  0  0  0  0  0  0  0  0  0
   -3.1719   -1.7801    0.0000 C   0  0  0  0  0  0  0  0  0  0  0  0
   -3.9377   -3.0699    0.0000 N   0  0  0  0  0  0  0  0  0  0  0  0
   -3.1403    0.8178    0.0000 C   0  0  0  0  0  0  0  0  0  0  0  0
   -2.3745    2.1076    0.0000 C   0  0  0  0  0  0  0  0  0  0  0  0
   -0.8746    2.0893    0.0000 C   0  0  0  0  0  0  0  0  0  0  0  0
   -0.1088    3.3791    0.0000 Cl  0  0  0  0  0  0  0  0  0  0  0  0
    3.5934   -0.5635    0.0000 C   0  0  0  0  0  0  0  0  0  0  0  0
    4.3592    0.7263    0.0000 O   0  0  0  0  0  0  0  0  0  0  0  0
    4.3275   -1.8716    0.0000 O   0  0  0  0  0  0  0  0  0  0  0  0
  2  1  1  1
  2  3  1  0
  3  4  1  0
  4  5  1  0
  5  6  2  0
  6  7  1  0
  7  8  3  0
  6  9  1  0
  9 10  2  0
 10 11  1  0
 11 12  1  0
  2 13  1  0
 13 14  2  0
 13 15  1  0
 11  4  2  0
M  END
>  <rName>  (2237) 
Phe_2Cl_5CN

>  <PQ_SYMBOL>  (2237) 
Phe_2Cl_5CN

>  <FULL_NAME>  (2237) 
(S)-2-amino-3-(2-chloro-5-cyanophenyl)propanoic acid

>  <IUPAC_CONDENSED>  (2237) 
Phe(2-Cl,5-CN)

>  <IUPAC>  (2237) 
(2S)-2-amino-3-(2-chloro-5-(nitrilomethyl)phenyl)propanoic acid

>  <TYPE>  (2237) 
Backbone

>  <CLASS>  (2237) 
alpha

>  <ANALOG>  (2237) 
Phe

>  <MOL_WT>  (2237) 
224.647

>  <LOGP>  (2237) 
1.1660800000000002

>  <TPSA>  (2237) 
87.11

>  <POPULARITY>  (2237) 
2.6

>  <PROTECTED>  (2237) 
TRUE

>  <SMILES>  (2237) 
N[C@@H](Cc1(cc(C#N)ccc1Cl))C(=O)O

>  <INCHIKEY>  (2237) 
DWZZPBAJXJKAHC-VIFPVBQESA-N

$$$$
D-hGln
     RDKit          2D

 11 10  0  0  0  0  0  0  0  0999 V2000
   -1.6269    1.8430    0.0000 N   0  0  0  0  0  0  0  0  0  0  0  0
   -1.7489    0.3480    0.0000 C   0  0  0  0  0  0  0  0  0  0  0  0
   -0.5152   -0.5052    0.0000 C   0  0  0  0  0  0  0  0  0  0  0  0
    0.8406    0.1366    0.0000 C   0  0  0  0  0  0  0  0  0  0  0  0
    2.0743   -0.7166    0.0000 C   0  0  0  0  0  0  0  0  0  0  0  0
    3.4300   -0.0748    0.0000 C   0  0  0  0  0  0  0  0  0  0  0  0
    3.5521    1.4203    0.0000 O   0  0  0  0  0  0  0  0  0  0  0  0
    4.6637   -0.9280    0.0000 N   0  0  0  0  0  0  0  0  0  0  0  0
   -3.1047   -0.2938    0.0000 C   0  0  0  0  0  0  0  0  0  0  0  0
   -3.2267   -1.7889    0.0000 O   0  0  0  0  0  0  0  0  0  0  0  0
   -4.3384    0.5594    0.0000 O   0  0  0  0  0  0  0  0  0  0  0  0
  2  1  1  6
  2  3  1  0
  3  4  1  0
  4  5  1  0
  5  6  1  0
  6  7  2  0
  6  8  1  0
  2  9  1  0
  9 10  2  0
  9 11  1  0
M  END
>  <rName>  (2238) 
D-hGln

>  <PQ_SYMBOL>  (2238) 
D-hGln

>  <FULL_NAME>  (2238) 
(R)-2,6-diamino-6-oxohexanoic acid

>  <IUPAC_CONDENSED>  (2238) 
D-hGln

>  <IUPAC>  (2238) 
(2R)-2-amino-5-carbamoylpentanoic acid

>  <TYPE>  (2238) 
Backbone

>  <CLASS>  (2238) 
alpha

>  <ANALOG>  (2238) 
Lys

>  <MOL_WT>  (2238) 
160.173

>  <LOGP>  (2238) 
-0.9460999999999993

>  <TPSA>  (2238) 
106.41000000000001

>  <POPULARITY>  (2238) 
6.6

>  <PROTECTED>  (2238) 
TRUE

>  <SMILES>  (2238) 
N[C@H](CCCC(=O)N)C(=O)O

>  <INCHIKEY>  (2238) 
YZJSUQQZGCHHNQ-SCSAIBSYSA-N

$$$$
2Pal_6NH2
     RDKit          2D

 13 13  0  0  0  0  0  0  0  0999 V2000
   -1.7680    1.6690    0.0000 N   0  0  0  0  0  0  0  0  0  0  0  0
   -1.9932    0.1860    0.0000 C   0  0  0  0  0  0  0  0  0  0  0  0
   -0.8215   -0.7506    0.0000 C   0  0  0  0  0  0  0  0  0  0  0  0
    0.5754   -0.2041    0.0000 C   0  0  0  0  0  0  0  0  0  0  0  0
    0.8006    1.2789    0.0000 C   0  0  0  0  0  0  0  0  0  0  0  0
    2.1976    1.8254    0.0000 C   0  0  0  0  0  0  0  0  0  0  0  0
    3.3693    0.8888    0.0000 C   0  0  0  0  0  0  0  0  0  0  0  0
    3.1441   -0.5942    0.0000 C   0  0  0  0  0  0  0  0  0  0  0  0
    4.3158   -1.5307    0.0000 N   0  0  0  0  0  0  0  0  0  0  0  0
    1.7472   -1.1406    0.0000 N   0  0  0  0  0  0  0  0  0  0  0  0
   -3.3901   -0.3605    0.0000 C   0  0  0  0  0  0  0  0  0  0  0  0
   -3.6153   -1.8435    0.0000 O   0  0  0  0  0  0  0  0  0  0  0  0
   -4.5618    0.5760    0.0000 O   0  0  0  0  0  0  0  0  0  0  0  0
  2  1  1  1
  2  3  1  0
  3  4  1  0
  4  5  2  0
  5  6  1  0
  6  7  2  0
  7  8  1  0
  8  9  1  0
  8 10  2  0
  2 11  1  0
 11 12  2  0
 11 13  1  0
 10  4  1  0
M  END
>  <rName>  (2239) 
2Pal_6NH2

>  <PQ_SYMBOL>  (2239) 
2Pal_6NH2

>  <FULL_NAME>  (2239) 
(S)-2-amino-3-(6-aminopyridin-2-yl)propanoic acid

>  <IUPAC_CONDENSED>  (2239) 
2Pal(6-NH2)

>  <IUPAC>  (2239) 
(2S)-2-amino-3-(6-aminopyridin-2-yl)propanoic acid

>  <TYPE>  (2239) 
Backbone

>  <CLASS>  (2239) 
alpha

>  <ANALOG>  (2239) 
Phe

>  <MOL_WT>  (2239) 
181.19499999999996

>  <LOGP>  (2239) 
-0.3818000000000002

>  <TPSA>  (2239) 
102.23

>  <POPULARITY>  (2239) 
3.9

>  <PROTECTED>  (2239) 
TRUE

>  <SMILES>  (2239) 
N[C@@H](Cc1(cccc(N)n1))C(=O)O

>  <INCHIKEY>  (2239) 
XKSKSDXAPQRGAB-LURJTMIESA-N

$$$$
Phe_3F_4CO2H
     RDKit          2D

 16 16  0  0  0  0  0  0  0  0999 V2000
   -2.5421    1.7204    0.0000 N   0  0  0  0  0  0  0  0  0  0  0  0
   -2.9632    0.2807    0.0000 C   0  0  0  0  0  0  0  0  0  0  0  0
   -1.9270   -0.8038    0.0000 C   0  0  0  0  0  0  0  0  0  0  0  0
   -0.4696   -0.4487    0.0000 C   0  0  0  0  0  0  0  0  0  0  0  0
   -0.0485    0.9910    0.0000 C   0  0  0  0  0  0  0  0  0  0  0  0
    1.4089    1.3461    0.0000 C   0  0  0  0  0  0  0  0  0  0  0  0
    2.4451    0.2616    0.0000 C   0  0  0  0  0  0  0  0  0  0  0  0
    3.9024    0.6167    0.0000 C   0  0  0  0  0  0  0  0  0  0  0  0
    4.3236    2.0564    0.0000 O   0  0  0  0  0  0  0  0  0  0  0  0
    4.9387   -0.4678    0.0000 O   0  0  0  0  0  0  0  0  0  0  0  0
    2.0240   -1.1781    0.0000 C   0  0  0  0  0  0  0  0  0  0  0  0
    3.0602   -2.2626    0.0000 F   0  0  0  0  0  0  0  0  0  0  0  0
    0.5666   -1.5332    0.0000 C   0  0  0  0  0  0  0  0  0  0  0  0
   -4.4206   -0.0744    0.0000 C   0  0  0  0  0  0  0  0  0  0  0  0
   -4.8417   -1.5141    0.0000 O   0  0  0  0  0  0  0  0  0  0  0  0
   -5.4568    1.0101    0.0000 O   0  0  0  0  0  0  0  0  0  0  0  0
  2  1  1  1
  2  3  1  0
  3  4  1  0
  4  5  1  0
  5  6  2  0
  6  7  1  0
  7  8  1  0
  8  9  2  0
  8 10  1  0
  7 11  2  0
 11 12  1  0
 11 13  1  0
  2 14  1  0
 14 15  2  0
 14 16  1  0
 13  4  2  0
M  END
>  <rName>  (2240) 
Phe_3F_4CO2H

>  <PQ_SYMBOL>  (2240) 
Phe_3F_4CO2H

>  <FULL_NAME>  (2240) 
(S)-4-(2-amino-2-carboxyethyl)-2-fluorobenzoic acid

>  <IUPAC_CONDENSED>  (2240) 
Phe(3-F,4-CO2H)

>  <IUPAC>  (2240) 
4-((2S)-2-amino-3-hydroxy-3-oxopropyl)-2-fluorobenzene-1-carboxylic acid

>  <TYPE>  (2240) 
Backbone

>  <CLASS>  (2240) 
alpha

>  <ANALOG>  (2240) 
Phe

>  <MOL_WT>  (2240) 
227.19099999999997

>  <LOGP>  (2240) 
0.47829999999999984

>  <TPSA>  (2240) 
100.62000000000002

>  <POPULARITY>  (2240) 
2.8

>  <PROTECTED>  (2240) 
TRUE

>  <SMILES>  (2240) 
N[C@@H](Cc1(ccc(C(=O)O)c(F)c1))C(=O)O

>  <INCHIKEY>  (2240) 
GLJLKFKHXNHONO-QMMMGPOBSA-N

$$$$
4Pal_2Cl_3Me
     RDKit          2D

 14 14  0  0  0  0  0  0  0  0999 V2000
   -1.9599    1.7683    0.0000 N   0  0  0  0  0  0  0  0  0  0  0  0
   -2.1168    0.2766    0.0000 C   0  0  0  0  0  0  0  0  0  0  0  0
   -0.9034   -0.6052    0.0000 C   0  0  0  0  0  0  0  0  0  0  0  0
    0.4670    0.0047    0.0000 C   0  0  0  0  0  0  0  0  0  0  0  0
    0.6239    1.4965    0.0000 C   0  0  0  0  0  0  0  0  0  0  0  0
    1.9943    2.1065    0.0000 C   0  0  0  0  0  0  0  0  0  0  0  0
    3.2078    1.2247    0.0000 N   0  0  0  0  0  0  0  0  0  0  0  0
    3.0508   -0.2671    0.0000 C   0  0  0  0  0  0  0  0  0  0  0  0
    4.2643   -1.1489    0.0000 Cl  0  0  0  0  0  0  0  0  0  0  0  0
    1.6804   -0.8771    0.0000 C   0  0  0  0  0  0  0  0  0  0  0  0
    1.5235   -2.3688    0.0000 C   0  0  0  0  0  0  0  0  0  0  0  0
   -3.4872   -0.3334    0.0000 C   0  0  0  0  0  0  0  0  0  0  0  0
   -3.6441   -1.8252    0.0000 O   0  0  0  0  0  0  0  0  0  0  0  0
   -4.7006    0.5484    0.0000 O   0  0  0  0  0  0  0  0  0  0  0  0
  2  1  1  1
  2  3  1  0
  3  4  1  0
  4  5  1  0
  5  6  2  0
  6  7  1  0
  7  8  2  0
  8  9  1  0
  8 10  1  0
 10 11  1  0
  2 12  1  0
 12 13  2  0
 12 14  1  0
 10  4  2  0
M  END
>  <rName>  (2241) 
4Pal_2Cl_3Me

>  <PQ_SYMBOL>  (2241) 
4Pal_2Cl_3Me

>  <FULL_NAME>  (2241) 
(S)-2-amino-3-(2-chloro-3-methylpyridin-4-yl)propanoic acid

>  <IUPAC_CONDENSED>  (2241) 
4Pal(2-Cl,3-Me)

>  <IUPAC>  (2241) 
(2S)-2-amino-3-(2-chloro-3-methylpyridin-4-yl)propanoic acid

>  <TYPE>  (2241) 
Backbone

>  <CLASS>  (2241) 
alpha

>  <ANALOG>  (2241) 
Phe

>  <MOL_WT>  (2241) 
214.652

>  <LOGP>  (2241) 
0.9978199999999999

>  <TPSA>  (2241) 
76.21

>  <POPULARITY>  (2241) 
2.4

>  <PROTECTED>  (2241) 
TRUE

>  <SMILES>  (2241) 
N[C@@H](Cc1(ccnc(Cl)c1C))C(=O)O

>  <INCHIKEY>  (2241) 
DRXSZTCTPNWCPQ-ZETCQYMHSA-N

$$$$
Phe_3Ac_4OMe
     RDKit          2D

 17 17  0  0  0  0  0  0  0  0999 V2000
   -2.8817    1.7117    0.0000 N   0  0  0  0  0  0  0  0  0  0  0  0
   -3.1394    0.2340    0.0000 C   0  0  0  0  0  0  0  0  0  0  0  0
   -1.9886   -0.7280    0.0000 C   0  0  0  0  0  0  0  0  0  0  0  0
   -0.5800   -0.2123    0.0000 C   0  0  0  0  0  0  0  0  0  0  0  0
   -0.3223    1.2654    0.0000 C   0  0  0  0  0  0  0  0  0  0  0  0
    1.0863    1.7810    0.0000 C   0  0  0  0  0  0  0  0  0  0  0  0
    2.2372    0.8190    0.0000 C   0  0  0  0  0  0  0  0  0  0  0  0
    3.6457    1.3347    0.0000 O   0  0  0  0  0  0  0  0  0  0  0  0
    3.9034    2.8123    0.0000 C   0  0  0  0  0  0  0  0  0  0  0  0
    1.9794   -0.6587    0.0000 C   0  0  0  0  0  0  0  0  0  0  0  0
    0.5709   -1.1744    0.0000 C   0  0  0  0  0  0  0  0  0  0  0  0
    3.1303   -1.6207    0.0000 C   0  0  0  0  0  0  0  0  0  0  0  0
    4.5389   -1.1051    0.0000 O   0  0  0  0  0  0  0  0  0  0  0  0
    2.8726   -3.0984    0.0000 C   0  0  0  0  0  0  0  0  0  0  0  0
   -4.5480   -0.2816    0.0000 C   0  0  0  0  0  0  0  0  0  0  0  0
   -4.8057   -1.7593    0.0000 O   0  0  0  0  0  0  0  0  0  0  0  0
   -5.6989    0.6804    0.0000 O   0  0  0  0  0  0  0  0  0  0  0  0
  2  1  1  1
  2  3  1  0
  3  4  1  0
  4  5  1  0
  5  6  2  0
  6  7  1  0
  7  8  1  0
  8  9  1  0
  7 10  2  0
 10 11  1  0
 10 12  1  0
 12 13  2  0
 12 14  1  0
  2 15  1  0
 15 16  2  0
 15 17  1  0
 11  4  2  0
M  END
>  <rName>  (2242) 
Phe_3Ac_4OMe

>  <PQ_SYMBOL>  (2242) 
Phe_3Ac_4OMe

>  <FULL_NAME>  (2242) 
(S)-3-(3-acetyl-4-methoxyphenyl)-2-aminopropanoic acid

>  <IUPAC_CONDENSED>  (2242) 
Phe(3-Ac,4-OMe)

>  <IUPAC>  (2242) 
(2S)-3-(3-(acetyl)-4-methoxyphenyl)-2-aminopropanoic acid

>  <TYPE>  (2242) 
Backbone

>  <CLASS>  (2242) 
alpha

>  <ANALOG>  (2242) 
Tyr

>  <MOL_WT>  (2242) 
237.25499999999997

>  <LOGP>  (2242) 
0.8521999999999998

>  <TPSA>  (2242) 
89.62

>  <POPULARITY>  (2242) 
3

>  <PROTECTED>  (2242) 
TRUE

>  <SMILES>  (2242) 
N[C@@H](Cc1(ccc(OC)c(c1)C(=O)C))C(=O)O

>  <INCHIKEY>  (2242) 
BBEURLKMSYNZIM-JTQLQIEISA-N

$$$$
Phe_3CO2H_4NH2
     RDKit          2D

 16 16  0  0  0  0  0  0  0  0999 V2000
   -2.7936    1.6481    0.0000 N   0  0  0  0  0  0  0  0  0  0  0  0
   -2.9203    0.1535    0.0000 C   0  0  0  0  0  0  0  0  0  0  0  0
   -1.6893   -0.7036    0.0000 C   0  0  0  0  0  0  0  0  0  0  0  0
   -0.3315   -0.0660    0.0000 C   0  0  0  0  0  0  0  0  0  0  0  0
   -0.2048    1.4287    0.0000 C   0  0  0  0  0  0  0  0  0  0  0  0
    1.1530    2.0662    0.0000 C   0  0  0  0  0  0  0  0  0  0  0  0
    2.3840    1.2092    0.0000 C   0  0  0  0  0  0  0  0  0  0  0  0
    3.7417    1.8468    0.0000 N   0  0  0  0  0  0  0  0  0  0  0  0
    2.2573   -0.2855    0.0000 C   0  0  0  0  0  0  0  0  0  0  0  0
    0.8995   -0.9230    0.0000 C   0  0  0  0  0  0  0  0  0  0  0  0
    3.4883   -1.1425    0.0000 C   0  0  0  0  0  0  0  0  0  0  0  0
    4.8461   -0.5049    0.0000 O   0  0  0  0  0  0  0  0  0  0  0  0
    3.3616   -2.6372    0.0000 O   0  0  0  0  0  0  0  0  0  0  0  0
   -4.2781   -0.4841    0.0000 C   0  0  0  0  0  0  0  0  0  0  0  0
   -4.4048   -1.9787    0.0000 O   0  0  0  0  0  0  0  0  0  0  0  0
   -5.5091    0.3730    0.0000 O   0  0  0  0  0  0  0  0  0  0  0  0
  2  1  1  1
  2  3  1  0
  3  4  1  0
  4  5  1  0
  5  6  2  0
  6  7  1  0
  7  8  1  0
  7  9  2  0
  9 10  1  0
  9 11  1  0
 11 12  2  0
 11 13  1  0
  2 14  1  0
 14 15  2  0
 14 16  1  0
 10  4  2  0
M  END
>  <rName>  (2243) 
Phe_3CO2H_4NH2

>  <PQ_SYMBOL>  (2243) 
Phe_3CO2H_4NH2

>  <FULL_NAME>  (2243) 
(S)-2-amino-5-(2-amino-2-carboxyethyl)benzoic acid

>  <IUPAC_CONDENSED>  (2243) 
Phe(3-CO2H,4-NH2)

>  <IUPAC>  (2243) 
2-amino-5-((2S)-2-amino-3-hydroxy-3-oxopropyl)benzoic acid

>  <TYPE>  (2243) 
Backbone

>  <CLASS>  (2243) 
alpha

>  <ANALOG>  (2243) 
Phe

>  <MOL_WT>  (2243) 
224.21599999999998

>  <LOGP>  (2243) 
-0.07860000000000034

>  <TPSA>  (2243) 
126.64

>  <POPULARITY>  (2243) 
2.8

>  <PROTECTED>  (2243) 
TRUE

>  <SMILES>  (2243) 
N[C@@H](Cc1(ccc(N)c(c1)C(=O)O))C(=O)O

>  <INCHIKEY>  (2243) 
NZJJKIVZNAYSNE-QMMMGPOBSA-N

$$$$
Phe_2CO2H_45diOMe
     RDKit          2D

 19 19  0  0  0  0  0  0  0  0999 V2000
   -2.1590    2.2332    0.0000 N   0  0  0  0  0  0  0  0  0  0  0  0
   -2.7585    0.8582    0.0000 C   0  0  0  0  0  0  0  0  0  0  0  0
   -1.8674   -0.3485    0.0000 C   0  0  0  0  0  0  0  0  0  0  0  0
   -0.3769   -0.1802    0.0000 C   0  0  0  0  0  0  0  0  0  0  0  0
    0.2226    1.1948    0.0000 C   0  0  0  0  0  0  0  0  0  0  0  0
    1.7131    1.3631    0.0000 C   0  0  0  0  0  0  0  0  0  0  0  0
    2.3126    2.7381    0.0000 O   0  0  0  0  0  0  0  0  0  0  0  0
    3.8032    2.9064    0.0000 C   0  0  0  0  0  0  0  0  0  0  0  0
    2.6042    0.1565    0.0000 C   0  0  0  0  0  0  0  0  0  0  0  0
    4.0947    0.3248    0.0000 O   0  0  0  0  0  0  0  0  0  0  0  0
    4.9857   -0.8819    0.0000 C   0  0  0  0  0  0  0  0  0  0  0  0
    2.0047   -1.2185    0.0000 C   0  0  0  0  0  0  0  0  0  0  0  0
    0.5141   -1.3868    0.0000 C   0  0  0  0  0  0  0  0  0  0  0  0
   -0.0854   -2.7618    0.0000 C   0  0  0  0  0  0  0  0  0  0  0  0
   -1.5759   -2.9302    0.0000 O   0  0  0  0  0  0  0  0  0  0  0  0
    0.8057   -3.9685    0.0000 O   0  0  0  0  0  0  0  0  0  0  0  0
   -4.2490    0.6899    0.0000 C   0  0  0  0  0  0  0  0  0  0  0  0
   -4.8485   -0.6851    0.0000 O   0  0  0  0  0  0  0  0  0  0  0  0
   -5.1400    1.8966    0.0000 O   0  0  0  0  0  0  0  0  0  0  0  0
  2  1  1  1
  2  3  1  0
  3  4  1  0
  4  5  2  0
  5  6  1  0
  6  7  1  0
  7  8  1  0
  6  9  2  0
  9 10  1  0
 10 11  1  0
  9 12  1  0
 12 13  2  0
 13 14  1  0
 14 15  2  0
 14 16  1  0
  2 17  1  0
 17 18  2  0
 17 19  1  0
 13  4  1  0
M  END
>  <rName>  (2244) 
Phe_2CO2H_45diOMe

>  <PQ_SYMBOL>  (2244) 
Phe_2CO2H_45diOMe

>  <FULL_NAME>  (2244) 
(S)-2-(2-amino-2-carboxyethyl)-4,5-dimethoxybenzoic acid

>  <IUPAC_CONDENSED>  (2244) 
Phe(2-CO2H,4,5-diOMe)

>  <IUPAC>  (2244) 
2-((2S)-2-amino-3-hydroxy-3-oxopropyl)-4,5-dimethoxybenzene-1-carboxylic acid

>  <TYPE>  (2244) 
Backbone

>  <CLASS>  (2244) 
alpha

>  <ANALOG>  (2244) 
Tyr

>  <MOL_WT>  (2244) 
269.25299999999993

>  <LOGP>  (2244) 
0.35639999999999994

>  <TPSA>  (2244) 
119.08

>  <POPULARITY>  (2244) 
2.6

>  <PROTECTED>  (2244) 
TRUE

>  <SMILES>  (2244) 
N[C@@H](Cc1(cc(OC)c(OC)cc1C(=O)O))C(=O)O

>  <INCHIKEY>  (2244) 
JUKFKRMSCOKYDO-QMMMGPOBSA-N

$$$$
D-Phe_2F_4OMe
     RDKit          2D

 15 15  0  0  0  0  0  0  0  0999 V2000
   -2.3798    1.6931    0.0000 N   0  0  0  0  0  0  0  0  0  0  0  0
   -2.6978    0.2272    0.0000 C   0  0  0  0  0  0  0  0  0  0  0  0
   -1.5874   -0.7812    0.0000 C   0  0  0  0  0  0  0  0  0  0  0  0
   -0.1588   -0.3237    0.0000 C   0  0  0  0  0  0  0  0  0  0  0  0
    0.1592    1.1422    0.0000 C   0  0  0  0  0  0  0  0  0  0  0  0
    1.5877    1.5997    0.0000 C   0  0  0  0  0  0  0  0  0  0  0  0
    2.6982    0.5914    0.0000 C   0  0  0  0  0  0  0  0  0  0  0  0
    4.1267    1.0489    0.0000 O   0  0  0  0  0  0  0  0  0  0  0  0
    5.2372    0.0405    0.0000 C   0  0  0  0  0  0  0  0  0  0  0  0
    2.3802   -0.8745    0.0000 C   0  0  0  0  0  0  0  0  0  0  0  0
    3.4906   -1.8829    0.0000 F   0  0  0  0  0  0  0  0  0  0  0  0
    0.9516   -1.3321    0.0000 C   0  0  0  0  0  0  0  0  0  0  0  0
   -4.1264   -0.2303    0.0000 C   0  0  0  0  0  0  0  0  0  0  0  0
   -4.4444   -1.6962    0.0000 O   0  0  0  0  0  0  0  0  0  0  0  0
   -5.2369    0.7780    0.0000 O   0  0  0  0  0  0  0  0  0  0  0  0
  2  1  1  6
  2  3  1  0
  3  4  1  0
  4  5  1  0
  5  6  2  0
  6  7  1  0
  7  8  1  0
  8  9  1  0
  7 10  2  0
 10 11  1  0
 10 12  1  0
  2 13  1  0
 13 14  2  0
 13 15  1  0
 12  4  2  0
M  END
>  <rName>  (2245) 
D-Phe_2F_4OMe

>  <PQ_SYMBOL>  (2245) 
D-Phe_2F_4OMe

>  <FULL_NAME>  (2245) 
(R)-2-amino-3-(3-fluoro-4-methoxyphenyl)propanoic acid

>  <IUPAC_CONDENSED>  (2245) 
D-Phe(2-F,4-OMe)

>  <IUPAC>  (2245) 
(2R)-2-amino-3-(3-fluoro-4-methoxyphenyl)propanoic acid

>  <TYPE>  (2245) 
Backbone

>  <CLASS>  (2245) 
alpha

>  <ANALOG>  (2245) 
Tyr

>  <MOL_WT>  (2245) 
213.20799999999997

>  <LOGP>  (2245) 
0.7887000000000002

>  <TPSA>  (2245) 
72.55

>  <POPULARITY>  (2245) 
3.7

>  <PROTECTED>  (2245) 
TRUE

>  <SMILES>  (2245) 
N[C@H](Cc1(ccc(OC)c(F)c1))C(=O)O

>  <INCHIKEY>  (2245) 
ZESXBIYTDJAZSP-MRVPVSSYSA-N

$$$$
Phe_2F_4OMe
     RDKit          2D

 15 15  0  0  0  0  0  0  0  0999 V2000
   -2.3798    1.6931    0.0000 N   0  0  0  0  0  0  0  0  0  0  0  0
   -2.6978    0.2272    0.0000 C   0  0  0  0  0  0  0  0  0  0  0  0
   -1.5874   -0.7812    0.0000 C   0  0  0  0  0  0  0  0  0  0  0  0
   -0.1588   -0.3237    0.0000 C   0  0  0  0  0  0  0  0  0  0  0  0
    0.1592    1.1422    0.0000 C   0  0  0  0  0  0  0  0  0  0  0  0
    1.5877    1.5997    0.0000 C   0  0  0  0  0  0  0  0  0  0  0  0
    2.6982    0.5914    0.0000 C   0  0  0  0  0  0  0  0  0  0  0  0
    4.1267    1.0489    0.0000 O   0  0  0  0  0  0  0  0  0  0  0  0
    5.2372    0.0405    0.0000 C   0  0  0  0  0  0  0  0  0  0  0  0
    2.3802   -0.8745    0.0000 C   0  0  0  0  0  0  0  0  0  0  0  0
    3.4906   -1.8829    0.0000 F   0  0  0  0  0  0  0  0  0  0  0  0
    0.9516   -1.3321    0.0000 C   0  0  0  0  0  0  0  0  0  0  0  0
   -4.1264   -0.2303    0.0000 C   0  0  0  0  0  0  0  0  0  0  0  0
   -4.4444   -1.6962    0.0000 O   0  0  0  0  0  0  0  0  0  0  0  0
   -5.2369    0.7780    0.0000 O   0  0  0  0  0  0  0  0  0  0  0  0
  2  1  1  1
  2  3  1  0
  3  4  1  0
  4  5  1  0
  5  6  2  0
  6  7  1  0
  7  8  1  0
  8  9  1  0
  7 10  2  0
 10 11  1  0
 10 12  1  0
  2 13  1  0
 13 14  2  0
 13 15  1  0
 12  4  2  0
M  END
>  <rName>  (2246) 
Phe_2F_4OMe

>  <PQ_SYMBOL>  (2246) 
Phe_2F_4OMe

>  <FULL_NAME>  (2246) 
(S)-2-amino-3-(3-fluoro-4-methoxyphenyl)propanoic acid

>  <IUPAC_CONDENSED>  (2246) 
Phe(2-F,4-OMe)

>  <IUPAC>  (2246) 
(2S)-2-amino-3-(3-fluoro-4-methoxyphenyl)propanoic acid

>  <TYPE>  (2246) 
Backbone

>  <CLASS>  (2246) 
alpha

>  <ANALOG>  (2246) 
Tyr

>  <MOL_WT>  (2246) 
213.20799999999997

>  <LOGP>  (2246) 
0.7887000000000002

>  <TPSA>  (2246) 
72.55

>  <POPULARITY>  (2246) 
4.2

>  <PROTECTED>  (2246) 
TRUE

>  <SMILES>  (2246) 
N[C@@H](Cc1(ccc(OC)c(F)c1))C(=O)O

>  <INCHIKEY>  (2246) 
ZESXBIYTDJAZSP-QMMMGPOBSA-N

$$$$
Phe_22carboxyethyl
     RDKit          2D

 17 17  0  0  0  0  0  0  0  0999 V2000
   -1.2226   -3.0000    0.0000 N   0  0  0  0  0  0  0  0  0  0  0  0
    0.0764   -2.2500    0.0000 C   0  0  0  0  0  0  0  0  0  0  0  0
    0.0764   -0.7500    0.0000 C   0  0  0  0  0  0  0  0  0  0  0  0
   -1.2226    0.0000    0.0000 C   0  0  0  0  0  0  0  0  0  0  0  0
   -2.5217   -0.7500    0.0000 C   0  0  0  0  0  0  0  0  0  0  0  0
   -3.8207    0.0000    0.0000 C   0  0  0  0  0  0  0  0  0  0  0  0
   -3.8207    1.5000    0.0000 C   0  0  0  0  0  0  0  0  0  0  0  0
   -2.5217    2.2500    0.0000 C   0  0  0  0  0  0  0  0  0  0  0  0
   -1.2226    1.5000    0.0000 C   0  0  0  0  0  0  0  0  0  0  0  0
    0.0764    2.2500    0.0000 C   0  0  0  0  0  0  0  0  0  0  0  0
    1.3755    1.5000    0.0000 C   0  0  0  0  0  0  0  0  0  0  0  0
    2.6745    2.2500    0.0000 C   0  0  0  0  0  0  0  0  0  0  0  0
    2.6745    3.7500    0.0000 O   0  0  0  0  0  0  0  0  0  0  0  0
    3.9735    1.5000    0.0000 O   0  0  0  0  0  0  0  0  0  0  0  0
    1.3755   -3.0000    0.0000 C   0  0  0  0  0  0  0  0  0  0  0  0
    2.6745   -2.2500    0.0000 O   0  0  0  0  0  0  0  0  0  0  0  0
    1.3755   -4.5000    0.0000 O   0  0  0  0  0  0  0  0  0  0  0  0
  2  1  1  1
  2  3  1  0
  3  4  1  0
  4  5  2  0
  5  6  1  0
  6  7  2  0
  7  8  1  0
  8  9  2  0
  9 10  1  0
 10 11  1  0
 11 12  1  0
 12 13  2  0
 12 14  1  0
  2 15  1  0
 15 16  2  0
 15 17  1  0
  9  4  1  0
M  END
>  <rName>  (2247) 
Phe_22carboxyethyl

>  <PQ_SYMBOL>  (2247) 
Phe_22carboxyethyl

>  <FULL_NAME>  (2247) 
(S)-2-amino-3-(2-(2-carboxyethyl)phenyl)propanoic acid

>  <IUPAC_CONDENSED>  (2247) 
Phe(2-2-carboxyethyl)

>  <IUPAC>  (2247) 
(2S)-2-amino-3-(2-(3-hydroxy-3-oxopropyl)phenyl)propanoic acid

>  <TYPE>  (2247) 
Backbone

>  <CLASS>  (2247) 
alpha

>  <ANALOG>  (2247) 
Phe

>  <MOL_WT>  (2247) 
237.25499999999994

>  <LOGP>  (2247) 
0.6582

>  <TPSA>  (2247) 
100.62000000000002

>  <POPULARITY>  (2247) 
4.7

>  <PROTECTED>  (2247) 
TRUE

>  <SMILES>  (2247) 
N[C@@H](Cc1(ccccc1CCC(=O)O))C(=O)O

>  <INCHIKEY>  (2247) 
HSCGHCLQBODYBD-JTQLQIEISA-N

$$$$
Phe_4Ph_4NO2
     RDKit          2D

 21 22  0  0  0  0  0  0  0  0999 V2000
   -4.3588    1.7672    0.0000 N   0  0  0  0  0  0  0  0  0  0  0  0
   -4.9644    0.3949    0.0000 C   0  0  0  0  0  0  0  0  0  0  0  0
   -4.0787   -0.8157    0.0000 C   0  0  0  0  0  0  0  0  0  0  0  0
   -2.5874   -0.6540    0.0000 C   0  0  0  0  0  0  0  0  0  0  0  0
   -1.9819    0.7184    0.0000 C   0  0  0  0  0  0  0  0  0  0  0  0
   -0.4906    0.8801    0.0000 C   0  0  0  0  0  0  0  0  0  0  0  0
    0.3951   -0.3305    0.0000 C   0  0  0  0  0  0  0  0  0  0  0  0
   -0.2105   -1.7028    0.0000 C   0  0  0  0  0  0  0  0  0  0  0  0
   -1.7017   -1.8646    0.0000 C   0  0  0  0  0  0  0  0  0  0  0  0
    1.8863   -0.1687    0.0000 C   0  0  0  0  0  0  0  0  0  0  0  0
    2.7720   -1.3793    0.0000 C   0  0  0  0  0  0  0  0  0  0  0  0
    4.2633   -1.2176    0.0000 C   0  0  0  0  0  0  0  0  0  0  0  0
    4.8688    0.1548    0.0000 C   0  0  0  0  0  0  0  0  0  0  0  0
    3.9831    1.3654    0.0000 C   0  0  0  0  0  0  0  0  0  0  0  0
    2.4919    1.2036    0.0000 C   0  0  0  0  0  0  0  0  0  0  0  0
    6.3601    0.3165    0.0000 N   0  0  0  0  0  0  0  0  0  0  0  0
    6.9656    1.6889    0.0000 O   0  0  0  0  0  0  0  0  0  0  0  0
    7.2458   -0.8941    0.0000 O   0  0  0  0  0  0  0  0  0  0  0  0
   -6.4556    0.2331    0.0000 C   0  0  0  0  0  0  0  0  0  0  0  0
   -7.0612   -1.1392    0.0000 O   0  0  0  0  0  0  0  0  0  0  0  0
   -7.3413    1.4437    0.0000 O   0  0  0  0  0  0  0  0  0  0  0  0
  2  1  1  1
  2  3  1  0
  3  4  1  0
  4  5  1  0
  5  6  2  0
  6  7  1  0
  7  8  2  0
  8  9  1  0
  7 10  1  0
 10 11  1  0
 11 12  2  0
 12 13  1  0
 13 14  2  0
 14 15  1  0
 13 16  1  0
 16 17  2  0
 16 18  1  0
  2 19  1  0
 19 20  2  0
 19 21  1  0
  9  4  2  0
 15 10  2  0
M  CHG  2  16   1  18  -1
M  END
>  <rName>  (2248) 
Phe_4Ph_4NO2

>  <PQ_SYMBOL>  (2248) 
Phe_4Ph_4NO2

>  <FULL_NAME>  (2248) 
(S)-2-amino-3-(4'-nitro-[1,1'-biphenyl]-4-yl)propanoic acid

>  <IUPAC_CONDENSED>  (2248) 
Phe(4-Ph(4-NO2))

>  <IUPAC>  (2248) 
(2S)-2-amino-3-(4-(4-nitrophenyl)phenyl)propanoic acid

>  <TYPE>  (2248) 
Backbone

>  <CLASS>  (2248) 
alpha

>  <ANALOG>  (2248) 
Phe

>  <MOL_WT>  (2248) 
286.287

>  <LOGP>  (2248) 
2.2161999999999997

>  <TPSA>  (2248) 
106.46

>  <POPULARITY>  (2248) 
3.1

>  <PROTECTED>  (2248) 
TRUE

>  <SMILES>  (2248) 
N[C@@H](Cc1(ccc(cc1)c2(ccc(cc2)[N+](=O)[O-])))C(=O)O

>  <INCHIKEY>  (2248) 
YBTKBIVROPBGAT-AWEZNQCLSA-N

$$$$
Phe_3CF3_4CN
     RDKit          2D

 18 18  0  0  0  0  0  0  0  0999 V2000
   -3.1877    1.7356    0.0000 N   0  0  0  0  0  0  0  0  0  0  0  0
   -3.3892    0.2492    0.0000 C   0  0  0  0  0  0  0  0  0  0  0  0
   -2.2027   -0.6685    0.0000 C   0  0  0  0  0  0  0  0  0  0  0  0
   -0.8146   -0.0998    0.0000 C   0  0  0  0  0  0  0  0  0  0  0  0
   -0.6131    1.3866    0.0000 C   0  0  0  0  0  0  0  0  0  0  0  0
    0.7749    1.9553    0.0000 C   0  0  0  0  0  0  0  0  0  0  0  0
    1.9614    1.0376    0.0000 C   0  0  0  0  0  0  0  0  0  0  0  0
    3.3494    1.6063    0.0000 C   0  0  0  0  0  0  0  0  0  0  0  0
    4.7374    2.1750    0.0000 N   0  0  0  0  0  0  0  0  0  0  0  0
    1.7599   -0.4488    0.0000 C   0  0  0  0  0  0  0  0  0  0  0  0
    0.3719   -1.0175    0.0000 C   0  0  0  0  0  0  0  0  0  0  0  0
    2.9464   -1.3665    0.0000 C   0  0  0  0  0  0  0  0  0  0  0  0
    4.1329   -2.2842    0.0000 F   0  0  0  0  0  0  0  0  0  0  0  0
    2.0287   -2.5530    0.0000 F   0  0  0  0  0  0  0  0  0  0  0  0
    3.8641   -0.1800    0.0000 F   0  0  0  0  0  0  0  0  0  0  0  0
   -4.7772   -0.3195    0.0000 C   0  0  0  0  0  0  0  0  0  0  0  0
   -4.9787   -1.8059    0.0000 O   0  0  0  0  0  0  0  0  0  0  0  0
   -5.9637    0.5982    0.0000 O   0  0  0  0  0  0  0  0  0  0  0  0
  2  1  1  1
  2  3  1  0
  3  4  1  0
  4  5  1  0
  5  6  2  0
  6  7  1  0
  7  8  1  0
  8  9  3  0
  7 10  2  0
 10 11  1  0
 10 12  1  0
 12 13  1  0
 12 14  1  0
 12 15  1  0
  2 16  1  0
 16 17  2  0
 16 18  1  0
 11  4  2  0
M  END
>  <rName>  (2249) 
Phe_3CF3_4CN

>  <PQ_SYMBOL>  (2249) 
Phe_3CF3_4CN

>  <FULL_NAME>  (2249) 
(S)-2-amino-3-(4-cyano-3-(trifluoromethyl)phenyl)propanoic acid

>  <IUPAC_CONDENSED>  (2249) 
Phe(3-CF3,4-CN)

>  <IUPAC>  (2249) 
(2S)-2-amino-3-(4-(nitrilomethyl)-3-(trifluoromethyl)phenyl)propanoic acid

>  <TYPE>  (2249) 
Backbone

>  <CLASS>  (2249) 
alpha

>  <ANALOG>  (2249) 
Phe

>  <MOL_WT>  (2249) 
258.19899999999996

>  <LOGP>  (2249) 
1.5314800000000002

>  <TPSA>  (2249) 
87.11

>  <POPULARITY>  (2249) 
2.5

>  <PROTECTED>  (2249) 
TRUE

>  <SMILES>  (2249) 
N[C@@H](Cc1(ccc(C#N)c(c1)C(F)(F)F))C(=O)O

>  <INCHIKEY>  (2249) 
MCYVRDYXTYAIDE-VIFPVBQESA-N

$$$$
Phe_2CO2H_5F
     RDKit          2D

 16 16  0  0  0  0  0  0  0  0999 V2000
   -1.8615    2.0079    0.0000 N   0  0  0  0  0  0  0  0  0  0  0  0
   -2.1311    0.5324    0.0000 C   0  0  0  0  0  0  0  0  0  0  0  0
   -0.9881   -0.4389    0.0000 C   0  0  0  0  0  0  0  0  0  0  0  0
    0.4246    0.0654    0.0000 C   0  0  0  0  0  0  0  0  0  0  0  0
    0.6942    1.5409    0.0000 C   0  0  0  0  0  0  0  0  0  0  0  0
    2.1069    2.0452    0.0000 C   0  0  0  0  0  0  0  0  0  0  0  0
    2.3765    3.5208    0.0000 F   0  0  0  0  0  0  0  0  0  0  0  0
    3.2500    1.0739    0.0000 C   0  0  0  0  0  0  0  0  0  0  0  0
    2.9804   -0.4016    0.0000 C   0  0  0  0  0  0  0  0  0  0  0  0
    1.5677   -0.9059    0.0000 C   0  0  0  0  0  0  0  0  0  0  0  0
    1.2981   -2.3815    0.0000 C   0  0  0  0  0  0  0  0  0  0  0  0
   -0.1146   -2.8858    0.0000 O   0  0  0  0  0  0  0  0  0  0  0  0
    2.4411   -3.3528    0.0000 O   0  0  0  0  0  0  0  0  0  0  0  0
   -3.5438    0.0281    0.0000 C   0  0  0  0  0  0  0  0  0  0  0  0
   -3.8135   -1.4475    0.0000 O   0  0  0  0  0  0  0  0  0  0  0  0
   -4.6869    0.9993    0.0000 O   0  0  0  0  0  0  0  0  0  0  0  0
  2  1  1  1
  2  3  1  0
  3  4  1  0
  4  5  1  0
  5  6  2  0
  6  7  1  0
  6  8  1  0
  8  9  2  0
  9 10  1  0
 10 11  1  0
 11 12  2  0
 11 13  1  0
  2 14  1  0
 14 15  2  0
 14 16  1  0
 10  4  2  0
M  END
>  <rName>  (2250) 
Phe_2CO2H_5F

>  <PQ_SYMBOL>  (2250) 
Phe_2CO2H_5F

>  <FULL_NAME>  (2250) 
(S)-2-(2-amino-2-carboxyethyl)-4-fluorobenzoic acid

>  <IUPAC_CONDENSED>  (2250) 
Phe(2-CO2H,5-F)

>  <IUPAC>  (2250) 
2-((2S)-2-amino-3-hydroxy-3-oxopropyl)-4-fluorobenzene-1-carboxylic acid

>  <TYPE>  (2250) 
Backbone

>  <CLASS>  (2250) 
alpha

>  <ANALOG>  (2250) 
Phe

>  <MOL_WT>  (2250) 
227.19099999999997

>  <LOGP>  (2250) 
0.47829999999999984

>  <TPSA>  (2250) 
100.62000000000002

>  <POPULARITY>  (2250) 
2.6

>  <PROTECTED>  (2250) 
TRUE

>  <SMILES>  (2250) 
N[C@@H](Cc1(cc(F)ccc1C(=O)O))C(=O)O

>  <INCHIKEY>  (2250) 
XHSZIVULIWXVQU-QMMMGPOBSA-N

$$$$
Phe_3NH2_4CO2H
     RDKit          2D

 16 16  0  0  0  0  0  0  0  0999 V2000
   -2.5421    1.7204    0.0000 N   0  0  0  0  0  0  0  0  0  0  0  0
   -2.9632    0.2807    0.0000 C   0  0  0  0  0  0  0  0  0  0  0  0
   -1.9270   -0.8038    0.0000 C   0  0  0  0  0  0  0  0  0  0  0  0
   -0.4696   -0.4487    0.0000 C   0  0  0  0  0  0  0  0  0  0  0  0
   -0.0485    0.9910    0.0000 C   0  0  0  0  0  0  0  0  0  0  0  0
    1.4089    1.3461    0.0000 C   0  0  0  0  0  0  0  0  0  0  0  0
    2.4451    0.2616    0.0000 C   0  0  0  0  0  0  0  0  0  0  0  0
    3.9024    0.6167    0.0000 C   0  0  0  0  0  0  0  0  0  0  0  0
    4.3236    2.0564    0.0000 O   0  0  0  0  0  0  0  0  0  0  0  0
    4.9387   -0.4678    0.0000 O   0  0  0  0  0  0  0  0  0  0  0  0
    2.0240   -1.1781    0.0000 C   0  0  0  0  0  0  0  0  0  0  0  0
    3.0602   -2.2626    0.0000 N   0  0  0  0  0  0  0  0  0  0  0  0
    0.5666   -1.5332    0.0000 C   0  0  0  0  0  0  0  0  0  0  0  0
   -4.4206   -0.0744    0.0000 C   0  0  0  0  0  0  0  0  0  0  0  0
   -4.8417   -1.5141    0.0000 O   0  0  0  0  0  0  0  0  0  0  0  0
   -5.4568    1.0101    0.0000 O   0  0  0  0  0  0  0  0  0  0  0  0
  2  1  1  1
  2  3  1  0
  3  4  1  0
  4  5  1  0
  5  6  2  0
  6  7  1  0
  7  8  1  0
  8  9  2  0
  8 10  1  0
  7 11  2  0
 11 12  1  0
 11 13  1  0
  2 14  1  0
 14 15  2  0
 14 16  1  0
 13  4  2  0
M  END
>  <rName>  (2251) 
Phe_3NH2_4CO2H

>  <PQ_SYMBOL>  (2251) 
Phe_3NH2_4CO2H

>  <FULL_NAME>  (2251) 
(S)-2-amino-4-(2-amino-2-carboxyethyl)benzoic acid

>  <IUPAC_CONDENSED>  (2251) 
Phe(3-NH2,4-CO2H)

>  <IUPAC>  (2251) 
2-amino-4-((2S)-2-amino-3-hydroxy-3-oxopropyl)benzoic acid

>  <TYPE>  (2251) 
Backbone

>  <CLASS>  (2251) 
alpha

>  <ANALOG>  (2251) 
Phe

>  <MOL_WT>  (2251) 
224.21599999999998

>  <LOGP>  (2251) 
-0.07860000000000023

>  <TPSA>  (2251) 
126.64

>  <POPULARITY>  (2251) 
2.6

>  <PROTECTED>  (2251) 
TRUE

>  <SMILES>  (2251) 
N[C@@H](Cc1(ccc(C(=O)O)c(N)c1))C(=O)O

>  <INCHIKEY>  (2251) 
GPLZYEHAUFXZSL-QMMMGPOBSA-N

$$$$
Phe_2OMe_3Cl
     RDKit          2D

 15 15  0  0  0  0  0  0  0  0999 V2000
   -2.3383    1.7500    0.0000 N   0  0  0  0  0  0  0  0  0  0  0  0
   -2.3383    0.2500    0.0000 C   0  0  0  0  0  0  0  0  0  0  0  0
   -1.0392   -0.5000    0.0000 C   0  0  0  0  0  0  0  0  0  0  0  0
    0.2598    0.2500    0.0000 C   0  0  0  0  0  0  0  0  0  0  0  0
    0.2598    1.7500    0.0000 C   0  0  0  0  0  0  0  0  0  0  0  0
    1.5588    2.5000    0.0000 C   0  0  0  0  0  0  0  0  0  0  0  0
    2.8579    1.7500    0.0000 C   0  0  0  0  0  0  0  0  0  0  0  0
    2.8579    0.2500    0.0000 C   0  0  0  0  0  0  0  0  0  0  0  0
    4.1569   -0.5000    0.0000 Cl  0  0  0  0  0  0  0  0  0  0  0  0
    1.5588   -0.5000    0.0000 C   0  0  0  0  0  0  0  0  0  0  0  0
    1.5588   -2.0000    0.0000 O   0  0  0  0  0  0  0  0  0  0  0  0
    2.8579   -2.7500    0.0000 C   0  0  0  0  0  0  0  0  0  0  0  0
   -3.6373   -0.5000    0.0000 C   0  0  0  0  0  0  0  0  0  0  0  0
   -3.6373   -2.0000    0.0000 O   0  0  0  0  0  0  0  0  0  0  0  0
   -4.9363    0.2500    0.0000 O   0  0  0  0  0  0  0  0  0  0  0  0
  2  1  1  1
  2  3  1  0
  3  4  1  0
  4  5  2  0
  5  6  1  0
  6  7  2  0
  7  8  1  0
  8  9  1  0
  8 10  2  0
 10 11  1  0
 11 12  1  0
  2 13  1  0
 13 14  2  0
 13 15  1  0
 10  4  1  0
M  END
>  <rName>  (2252) 
Phe_2OMe_3Cl

>  <PQ_SYMBOL>  (2252) 
Phe_2OMe_3Cl

>  <FULL_NAME>  (2252) 
(S)-2-amino-3-(3-chloro-2-methoxyphenyl)propanoic acid

>  <IUPAC_CONDENSED>  (2252) 
Phe(2-OMe,3-Cl)

>  <IUPAC>  (2252) 
(2S)-2-amino-3-(3-chloro-2-methoxyphenyl)propanoic acid

>  <TYPE>  (2252) 
Backbone

>  <CLASS>  (2252) 
alpha

>  <ANALOG>  (2252) 
Tyr

>  <MOL_WT>  (2252) 
229.66299999999995

>  <LOGP>  (2252) 
1.3030000000000002

>  <TPSA>  (2252) 
72.55

>  <POPULARITY>  (2252) 
2.9

>  <PROTECTED>  (2252) 
TRUE

>  <SMILES>  (2252) 
N[C@@H](Cc1(cccc(Cl)c1OC))C(=O)O

>  <INCHIKEY>  (2252) 
CTGFLAJTRCVESO-QMMMGPOBSA-N

$$$$
3Pal_4Me_6Cl
     RDKit          2D

 14 14  0  0  0  0  0  0  0  0999 V2000
   -1.7174    1.8436    0.0000 N   0  0  0  0  0  0  0  0  0  0  0  0
   -2.1036    0.3942    0.0000 C   0  0  0  0  0  0  0  0  0  0  0  0
   -1.0414   -0.6650    0.0000 C   0  0  0  0  0  0  0  0  0  0  0  0
    0.4069   -0.2747    0.0000 C   0  0  0  0  0  0  0  0  0  0  0  0
    0.7931    1.1747    0.0000 C   0  0  0  0  0  0  0  0  0  0  0  0
    2.2415    1.5649    0.0000 N   0  0  0  0  0  0  0  0  0  0  0  0
    3.3036    0.5057    0.0000 C   0  0  0  0  0  0  0  0  0  0  0  0
    4.7520    0.8960    0.0000 Cl  0  0  0  0  0  0  0  0  0  0  0  0
    2.9174   -0.9437    0.0000 C   0  0  0  0  0  0  0  0  0  0  0  0
    1.4691   -1.3339    0.0000 C   0  0  0  0  0  0  0  0  0  0  0  0
    1.0829   -2.7834    0.0000 C   0  0  0  0  0  0  0  0  0  0  0  0
   -3.5519    0.0039    0.0000 C   0  0  0  0  0  0  0  0  0  0  0  0
   -3.9381   -1.4455    0.0000 O   0  0  0  0  0  0  0  0  0  0  0  0
   -4.6140    1.0631    0.0000 O   0  0  0  0  0  0  0  0  0  0  0  0
  2  1  1  1
  2  3  1  0
  3  4  1  0
  4  5  1  0
  5  6  2  0
  6  7  1  0
  7  8  1  0
  7  9  2  0
  9 10  1  0
 10 11  1  0
  2 12  1  0
 12 13  2  0
 12 14  1  0
 10  4  2  0
M  END
>  <rName>  (2253) 
3Pal_4Me_6Cl

>  <PQ_SYMBOL>  (2253) 
3Pal_4Me_6Cl

>  <FULL_NAME>  (2253) 
(S)-2-amino-3-(6-chloro-4-methylpyridin-3-yl)propanoic acid

>  <IUPAC_CONDENSED>  (2253) 
3Pal(4-Me,6-Cl)

>  <IUPAC>  (2253) 
(2S)-2-amino-3-(6-chloro-4-methylpyridin-3-yl)propanoic acid

>  <TYPE>  (2253) 
Backbone

>  <CLASS>  (2253) 
alpha

>  <ANALOG>  (2253) 
Phe

>  <MOL_WT>  (2253) 
214.652

>  <LOGP>  (2253) 
0.9978200000000002

>  <TPSA>  (2253) 
76.21

>  <POPULARITY>  (2253) 
2.5

>  <PROTECTED>  (2253) 
TRUE

>  <SMILES>  (2253) 
N[C@@H](Cc1(cnc(Cl)cc1C))C(=O)O

>  <INCHIKEY>  (2253) 
KJEOBTTUTHGNBY-ZETCQYMHSA-N

$$$$
D-hPhe_35diF_4CF3
     RDKit          2D

 19 19  0  0  0  0  0  0  0  0999 V2000
   -4.6152   -1.8506    0.0000 N   0  0  0  0  0  0  0  0  0  0  0  0
   -4.2205   -0.4035    0.0000 C   0  0  0  0  0  0  0  0  0  0  0  0
   -2.7698   -0.0218    0.0000 C   0  0  0  0  0  0  0  0  0  0  0  0
   -1.7140   -1.0872    0.0000 C   0  0  0  0  0  0  0  0  0  0  0  0
   -0.2633   -0.7056    0.0000 C   0  0  0  0  0  0  0  0  0  0  0  0
    0.1314    0.7416    0.0000 C   0  0  0  0  0  0  0  0  0  0  0  0
    1.5821    1.1232    0.0000 C   0  0  0  0  0  0  0  0  0  0  0  0
    1.9768    2.5703    0.0000 F   0  0  0  0  0  0  0  0  0  0  0  0
    2.6379    0.0578    0.0000 C   0  0  0  0  0  0  0  0  0  0  0  0
    2.2431   -1.3893    0.0000 C   0  0  0  0  0  0  0  0  0  0  0  0
    3.2990   -2.4548    0.0000 F   0  0  0  0  0  0  0  0  0  0  0  0
    0.7925   -1.7710    0.0000 C   0  0  0  0  0  0  0  0  0  0  0  0
    4.0885    0.4394    0.0000 C   0  0  0  0  0  0  0  0  0  0  0  0
    5.5392    0.8211    0.0000 F   0  0  0  0  0  0  0  0  0  0  0  0
    4.4702   -1.0112    0.0000 F   0  0  0  0  0  0  0  0  0  0  0  0
    3.7069    1.8901    0.0000 F   0  0  0  0  0  0  0  0  0  0  0  0
   -5.2763    0.6620    0.0000 C   0  0  0  0  0  0  0  0  0  0  0  0
   -4.8815    2.1091    0.0000 O   0  0  0  0  0  0  0  0  0  0  0  0
   -6.7269    0.2803    0.0000 O   0  0  0  0  0  0  0  0  0  0  0  0
  2  1  1  1
  2  3  1  0
  3  4  1  0
  4  5  1  0
  5  6  2  0
  6  7  1  0
  7  8  1  0
  7  9  2  0
  9 10  1  0
 10 11  1  0
 10 12  2  0
  9 13  1  0
 13 14  1  0
 13 15  1  0
 13 16  1  0
  2 17  1  0
 17 18  2  0
 17 19  1  0
 12  5  1  0
M  END
>  <rName>  (2254) 
D-hPhe_35diF_4CF3

>  <PQ_SYMBOL>  (2254) 
D-hPhe_35diF_4CF3

>  <FULL_NAME>  (2254) 
(R)-2-amino-4-(3,5-difluoro-4-(trifluoromethyl)phenyl)butanoic acid

>  <IUPAC_CONDENSED>  (2254) 
D-hPhe(3,5-diF,4-CF3)

>  <IUPAC>  (2254) 
(2R)-2-amino-4-(3,5-difluoro-4-(trifluoromethyl)phenyl)butanoic acid

>  <TYPE>  (2254) 
Backbone

>  <CLASS>  (2254) 
alpha

>  <ANALOG>  (2254) 
Phe

>  <MOL_WT>  (2254) 
283.19599999999997

>  <LOGP>  (2254) 
2.3281

>  <TPSA>  (2254) 
63.32000000000001

>  <POPULARITY>  (2254) 
3.2

>  <PROTECTED>  (2254) 
TRUE

>  <SMILES>  (2254) 
N[C@H](CCc1(cc(F)c(c(F)c1)C(F)(F)F))C(=O)O

>  <INCHIKEY>  (2254) 
IPKHUYODNKUTOQ-MRVPVSSYSA-N

$$$$
Ala_pyrazol4yl_1Me_3CO2H
     RDKit          2D

 15 15  0  0  0  0  0  0  0  0999 V2000
    2.0145    1.9210    0.0000 N   0  0  0  0  0  0  0  0  0  0  0  0
    2.1446    0.4266    0.0000 C   0  0  0  0  0  0  0  0  0  0  0  0
    0.9155   -0.4332    0.0000 C   0  0  0  0  0  0  0  0  0  0  0  0
   -0.4437    0.2013    0.0000 C   0  0  0  0  0  0  0  0  0  0  0  0
   -0.7292    1.6739    0.0000 C   0  0  0  0  0  0  0  0  0  0  0  0
   -2.2180    1.8573    0.0000 N   0  0  0  0  0  0  0  0  0  0  0  0
   -2.9446    3.1696    0.0000 C   0  0  0  0  0  0  0  0  0  0  0  0
   -2.8525    0.4981    0.0000 N   0  0  0  0  0  0  0  0  0  0  0  0
   -1.7559   -0.5253    0.0000 C   0  0  0  0  0  0  0  0  0  0  0  0
   -1.9394   -2.0141    0.0000 C   0  0  0  0  0  0  0  0  0  0  0  0
   -3.3204   -2.5996    0.0000 O   0  0  0  0  0  0  0  0  0  0  0  0
   -0.7418   -2.9173    0.0000 O   0  0  0  0  0  0  0  0  0  0  0  0
    3.5038   -0.2079    0.0000 C   0  0  0  0  0  0  0  0  0  0  0  0
    3.6339   -1.7023    0.0000 O   0  0  0  0  0  0  0  0  0  0  0  0
    4.7329    0.6519    0.0000 O   0  0  0  0  0  0  0  0  0  0  0  0
  2  1  1  6
  2  3  1  0
  3  4  1  0
  4  5  2  0
  5  6  1  0
  6  7  1  0
  6  8  1  0
  8  9  2  0
  9 10  1  0
 10 11  2  0
 10 12  1  0
  2 13  1  0
 13 14  2  0
 13 15  1  0
  9  4  1  0
M  END
>  <rName>  (2255) 
Ala_pyrazol4yl_1Me_3CO2H

>  <PQ_SYMBOL>  (2255) 
Ala_pyrazol4yl_1Me_3CO2H

>  <FULL_NAME>  (2255) 
(S)-4-(2-amino-2-carboxyethyl)-1-methyl-1H-pyrazole-3-carboxylic acid

>  <IUPAC_CONDENSED>  (2255) 
Ala(pyrazol-4-yl(1-Me,3-CO2H))

>  <IUPAC>  (2255) 
4-((2S)-2-amino-3-hydroxy-3-oxopropyl)-1-methyl-1H-pyrazole-3-carboxylic acid

>  <TYPE>  (2255) 
Backbone

>  <CLASS>  (2255) 
alpha

>  <ANALOG>  (2255) 
Phe

>  <MOL_WT>  (2255) 
213.19299999999998

>  <LOGP>  (2255) 
-0.9272999999999998

>  <TPSA>  (2255) 
118.44000000000001

>  <POPULARITY>  (2255) 
3.2

>  <PROTECTED>  (2255) 
TRUE

>  <SMILES>  (2255) 
N[C@@H](Cc1(cn(C)nc1C(=O)O))C(=O)O

>  <INCHIKEY>  (2255) 
OMHCYFAAVDIPTC-YFKPBYRVSA-N

$$$$
Ala_pyridazin3yl_6Me
     RDKit          2D

 13 13  0  0  0  0  0  0  0  0999 V2000
   -1.5766    1.6851    0.0000 N   0  0  0  0  0  0  0  0  0  0  0  0
   -2.0128    0.2500    0.0000 C   0  0  0  0  0  0  0  0  0  0  0  0
   -0.9880   -0.8454    0.0000 C   0  0  0  0  0  0  0  0  0  0  0  0
    0.4730   -0.5055    0.0000 C   0  0  0  0  0  0  0  0  0  0  0  0
    0.9092    0.9296    0.0000 C   0  0  0  0  0  0  0  0  0  0  0  0
    2.3702    1.2695    0.0000 C   0  0  0  0  0  0  0  0  0  0  0  0
    3.3950    0.1741    0.0000 C   0  0  0  0  0  0  0  0  0  0  0  0
    4.8560    0.5140    0.0000 C   0  0  0  0  0  0  0  0  0  0  0  0
    2.9588   -1.2611    0.0000 N   0  0  0  0  0  0  0  0  0  0  0  0
    1.4978   -1.6009    0.0000 N   0  0  0  0  0  0  0  0  0  0  0  0
   -3.4738   -0.0899    0.0000 C   0  0  0  0  0  0  0  0  0  0  0  0
   -3.9100   -1.5250    0.0000 O   0  0  0  0  0  0  0  0  0  0  0  0
   -4.4986    1.0055    0.0000 O   0  0  0  0  0  0  0  0  0  0  0  0
  2  1  1  1
  2  3  1  0
  3  4  1  0
  4  5  1  0
  5  6  2  0
  6  7  1  0
  7  8  1  0
  7  9  2  0
  9 10  1  0
  2 11  1  0
 11 12  2  0
 11 13  1  0
 10  4  2  0
M  END
>  <rName>  (2256) 
Ala_pyridazin3yl_6Me

>  <PQ_SYMBOL>  (2256) 
Ala_pyridazin3yl_6Me

>  <FULL_NAME>  (2256) 
(S)-2-amino-3-(6-methylpyridazin-3-yl)propanoic acid

>  <IUPAC_CONDENSED>  (2256) 
Ala(pyridazin-3-yl(6-Me))

>  <IUPAC>  (2256) 
(2S)-2-amino-3-(6-methylpyridazin-3-yl)propanoic acid

>  <TYPE>  (2256) 
Backbone

>  <CLASS>  (2256) 
alpha

>  <ANALOG>  (2256) 
Phe

>  <MOL_WT>  (2256) 
181.19499999999996

>  <LOGP>  (2256) 
-0.2605800000000001

>  <TPSA>  (2256) 
89.10000000000001

>  <POPULARITY>  (2256) 
2.8

>  <PROTECTED>  (2256) 
TRUE

>  <SMILES>  (2256) 
N[C@@H](Cc1(ccc(C)nn1))C(=O)O

>  <INCHIKEY>  (2256) 
GFVRFYYOWLCGEZ-ZETCQYMHSA-N

$$$$
Phe_43oxobutyl
     RDKit          2D

 17 17  0  0  0  0  0  0  0  0999 V2000
   -3.3399    1.6723    0.0000 N   0  0  0  0  0  0  0  0  0  0  0  0
   -3.7459    0.2283    0.0000 C   0  0  0  0  0  0  0  0  0  0  0  0
   -2.6984   -0.8453    0.0000 C   0  0  0  0  0  0  0  0  0  0  0  0
   -1.2448   -0.4749    0.0000 C   0  0  0  0  0  0  0  0  0  0  0  0
   -0.8388    0.9691    0.0000 C   0  0  0  0  0  0  0  0  0  0  0  0
    0.6147    1.3395    0.0000 C   0  0  0  0  0  0  0  0  0  0  0  0
    1.6623    0.2659    0.0000 C   0  0  0  0  0  0  0  0  0  0  0  0
    1.2563   -1.1781    0.0000 C   0  0  0  0  0  0  0  0  0  0  0  0
   -0.1972   -1.5485    0.0000 C   0  0  0  0  0  0  0  0  0  0  0  0
    3.1158    0.6363    0.0000 C   0  0  0  0  0  0  0  0  0  0  0  0
    4.1634   -0.4373    0.0000 C   0  0  0  0  0  0  0  0  0  0  0  0
    5.6169   -0.0669    0.0000 C   0  0  0  0  0  0  0  0  0  0  0  0
    6.0229    1.3771    0.0000 O   0  0  0  0  0  0  0  0  0  0  0  0
    6.6645   -1.1405    0.0000 C   0  0  0  0  0  0  0  0  0  0  0  0
   -5.1995   -0.1421    0.0000 C   0  0  0  0  0  0  0  0  0  0  0  0
   -5.6054   -1.5861    0.0000 O   0  0  0  0  0  0  0  0  0  0  0  0
   -6.2470    0.9315    0.0000 O   0  0  0  0  0  0  0  0  0  0  0  0
  2  1  1  1
  2  3  1  0
  3  4  1  0
  4  5  1  0
  5  6  2  0
  6  7  1  0
  7  8  2  0
  8  9  1  0
  7 10  1  0
 10 11  1  0
 11 12  1  0
 12 13  2  0
 12 14  1  0
  2 15  1  0
 15 16  2  0
 15 17  1  0
  9  4  2  0
M  END
>  <rName>  (2257) 
Phe_43oxobutyl

>  <PQ_SYMBOL>  (2257) 
Phe_43oxobutyl

>  <FULL_NAME>  (2257) 
(S)-2-amino-3-(4-(3-oxobutyl)phenyl)propanoic acid

>  <IUPAC_CONDENSED>  (2257) 
Phe(4-3-oxobutyl)

>  <IUPAC>  (2257) 
(2S)-2-amino-3-(4-(3-oxobutyl)phenyl)propanoic acid

>  <TYPE>  (2257) 
Backbone

>  <CLASS>  (2257) 
alpha

>  <ANALOG>  (2257) 
Phe

>  <MOL_WT>  (2257) 
235.28299999999993

>  <LOGP>  (2257) 
1.1626000000000003

>  <TPSA>  (2257) 
80.39

>  <POPULARITY>  (2257) 
3.1

>  <PROTECTED>  (2257) 
TRUE

>  <SMILES>  (2257) 
N[C@@H](Cc1(ccc(cc1)CCC(=O)C))C(=O)O

>  <INCHIKEY>  (2257) 
PLEYXYKUDVUIPW-LBPRGKRZSA-N

$$$$
hPro_4ROH
     RDKit          2D

 10 10  0  0  0  0  0  0  0  0999 V2000
   -0.3795   -1.1032    0.0000 N   0  0  0  0  0  0  0  0  0  0  0  0
   -0.0610    0.3626    0.0000 C   0  0  0  0  0  0  0  0  0  0  0  0
   -1.3566    1.1185    0.0000 C   0  0  0  0  0  0  0  0  0  0  0  0
   -2.4758    0.1199    0.0000 C   0  0  0  0  0  0  0  0  0  0  0  0
   -3.9416    0.4384    0.0000 O   0  0  0  0  0  0  0  0  0  0  0  0
   -1.8720   -1.2532    0.0000 C   0  0  0  0  0  0  0  0  0  0  0  0
    1.3121    0.9665    0.0000 C   0  0  0  0  0  0  0  0  0  0  0  0
    2.5216    0.0793    0.0000 C   0  0  0  0  0  0  0  0  0  0  0  0
    2.3580   -1.4118    0.0000 O   0  0  0  0  0  0  0  0  0  0  0  0
    3.8947    0.6831    0.0000 O   0  0  0  0  0  0  0  0  0  0  0  0
  1  2  1  0
  2  3  1  0
  3  4  1  0
  4  5  1  6
  4  6  1  0
  2  7  1  1
  7  8  1  0
  8  9  2  0
  8 10  1  0
  6  1  1  0
M  END
>  <rName>  (2258) 
hPro_4ROH

>  <PQ_SYMBOL>  (2258) 
hPro_4ROH

>  <FULL_NAME>  (2258) 
2-((2S,4R)-4-hydroxypyrrolidin-2-yl)acetic acid

>  <IUPAC_CONDENSED>  (2258) 
hPro(4R-OH)

>  <IUPAC>  (2258) 
2-((2S,4R)-4-hydroxypyrrolidin-2-yl)acetic acid

>  <TYPE>  (2258) 
Backbone

>  <CLASS>  (2258) 
beta

>  <ANALOG>  (2258) 
Pro

>  <MOL_WT>  (2258) 
145.15800000000002

>  <LOGP>  (2258) 
-0.8161000000000005

>  <TPSA>  (2258) 
69.56

>  <POPULARITY>  (2258) 
6.6

>  <PROTECTED>  (2258) 
TRUE

>  <SMILES>  (2258) 
N1[C@@H](C[C@@H](O)C1)CC(=O)O

>  <INCHIKEY>  (2258) 
HEUWVFJLYQNYMK-CRCLSJGQSA-N

$$$$
Phe_2Me_3NO2_5Cl
     RDKit          2D

 17 17  0  0  0  0  0  0  0  0999 V2000
   -2.7602    1.5794    0.0000 N   0  0  0  0  0  0  0  0  0  0  0  0
   -2.8265    0.0809    0.0000 C   0  0  0  0  0  0  0  0  0  0  0  0
   -1.5619   -0.7258    0.0000 C   0  0  0  0  0  0  0  0  0  0  0  0
   -0.2310   -0.0339    0.0000 C   0  0  0  0  0  0  0  0  0  0  0  0
   -0.1647    1.4646    0.0000 C   0  0  0  0  0  0  0  0  0  0  0  0
    1.1662    2.1564    0.0000 C   0  0  0  0  0  0  0  0  0  0  0  0
    1.2325    3.6550    0.0000 Cl  0  0  0  0  0  0  0  0  0  0  0  0
    2.4309    1.3498    0.0000 C   0  0  0  0  0  0  0  0  0  0  0  0
    2.3646   -0.1488    0.0000 C   0  0  0  0  0  0  0  0  0  0  0  0
    1.0337   -0.8406    0.0000 C   0  0  0  0  0  0  0  0  0  0  0  0
    0.9674   -2.3392    0.0000 C   0  0  0  0  0  0  0  0  0  0  0  0
    3.6292   -0.9555    0.0000 N   0  0  0  0  0  0  0  0  0  0  0  0
    3.5629   -2.4540    0.0000 O   0  0  0  0  0  0  0  0  0  0  0  0
    4.9601   -0.2636    0.0000 O   0  0  0  0  0  0  0  0  0  0  0  0
   -4.1574   -0.6110    0.0000 C   0  0  0  0  0  0  0  0  0  0  0  0
   -4.2237   -2.1095    0.0000 O   0  0  0  0  0  0  0  0  0  0  0  0
   -5.4220    0.1957    0.0000 O   0  0  0  0  0  0  0  0  0  0  0  0
  2  1  1  1
  2  3  1  0
  3  4  1  0
  4  5  1  0
  5  6  2  0
  6  7  1  0
  6  8  1  0
  8  9  2  0
  9 10  1  0
 10 11  1  0
  9 12  1  0
 12 13  2  0
 12 14  1  0
  2 15  1  0
 15 16  2  0
 15 17  1  0
 10  4  2  0
M  CHG  2  12   1  14  -1
M  END
>  <rName>  (2259) 
Phe_2Me_3NO2_5Cl

>  <PQ_SYMBOL>  (2259) 
Phe_2Me_3NO2_5Cl

>  <FULL_NAME>  (2259) 
(S)-2-amino-3-(5-chloro-2-methyl-3-nitrophenyl)propanoic acid

>  <IUPAC_CONDENSED>  (2259) 
Phe(2-Me,3-NO2,5-Cl)

>  <IUPAC>  (2259) 
(2S)-2-amino-3-(5-chloro-2-methyl-3-nitrophenyl)propanoic acid

>  <TYPE>  (2259) 
Backbone

>  <CLASS>  (2259) 
alpha

>  <ANALOG>  (2259) 
Phe

>  <MOL_WT>  (2259) 
258.66099999999994

>  <LOGP>  (2259) 
1.51102

>  <TPSA>  (2259) 
106.46

>  <POPULARITY>  (2259) 
2.5

>  <PROTECTED>  (2259) 
TRUE

>  <SMILES>  (2259) 
N[C@@H](Cc1(cc(Cl)cc(c1C)[N+](=O)[O-]))C(=O)O

>  <INCHIKEY>  (2259) 
QZIFVOYJSSJWML-QMMMGPOBSA-N

$$$$
His_1SO2NH2
     RDKit          2D

 17 17  0  0  0  0  0  0  0  0999 V2000
   -3.3587    1.6617    0.0000 N   0  0  0  0  0  0  0  0  0  0  0  0
   -3.4911    0.1676    0.0000 C   0  0  0  0  0  0  0  0  0  0  0  0
   -2.2633   -0.6941    0.0000 C   0  0  0  0  0  0  0  0  0  0  0  0
   -0.9032   -0.0617    0.0000 C   0  0  0  0  0  0  0  0  0  0  0  0
    0.4080   -0.7903    0.0000 C   0  0  0  0  0  0  0  0  0  0  0  0
    1.5061    0.2315    0.0000 N   0  0  0  0  0  0  0  0  0  0  0  0
    0.8737    1.5916    0.0000 C   0  0  0  0  0  0  0  0  0  0  0  0
   -0.6154    1.4104    0.0000 N   0  0  0  0  0  0  0  0  0  0  0  0
    2.9782   -0.0564    0.0000 S   0  0  0  0  0  0  0  0  0  0  0  0
    3.2661    1.4158    0.0000 O   0  0  0  0  0  0  0  0  0  0  0  0
    2.6904   -1.5285    0.0000 O   0  0  0  0  0  0  0  0  0  0  0  0
    4.4504   -0.3442    0.0000 N   0  0  0  0  0  0  0  0  0  0  0  0
    5.4357    0.7868    0.0000 C   0  0  0  0  0  0  0  0  0  0  0  0
    4.9372   -1.7630    0.0000 C   0  0  0  0  0  0  0  0  0  0  0  0
   -4.8513   -0.4649    0.0000 C   0  0  0  0  0  0  0  0  0  0  0  0
   -4.9836   -1.9590    0.0000 O   0  0  0  0  0  0  0  0  0  0  0  0
   -6.0791    0.3968    0.0000 O   0  0  0  0  0  0  0  0  0  0  0  0
  2  1  1  1
  2  3  1  0
  3  4  1  0
  4  5  2  0
  5  6  1  0
  6  7  1  0
  7  8  2  0
  6  9  1  0
  9 10  2  0
  9 11  2  0
  9 12  1  0
 12 13  1  0
 12 14  1  0
  2 15  1  0
 15 16  2  0
 15 17  1  0
  8  4  1  0
M  END
>  <rName>  (2260) 
His_1SO2NH2

>  <PQ_SYMBOL>  (2260) 
His_1SO2NH2

>  <FULL_NAME>  (2260) 
Nt-(N,N-dimethylsulfamoyl)-L-histidine

>  <IUPAC_CONDENSED>  (2260) 
His(1-SO2NH2)

>  <IUPAC>  (2260) 
(2S)-2-amino-3-(1-(dimethylsulfamoyl)-1H-imidazol-4-yl)propanoic acid

>  <TYPE>  (2260) 
Backbone

>  <CLASS>  (2260) 
alpha

>  <ANALOG>  (2260) 
His

>  <MOL_WT>  (2260) 
262.29099999999994

>  <LOGP>  (2260) 
-1.5079999999999978

>  <TPSA>  (2260) 
118.52

>  <POPULARITY>  (2260) 
2.9

>  <PROTECTED>  (2260) 
TRUE

>  <SMILES>  (2260) 
N[C@@H](Cc1(cn(cn1)S(=O)(=O)N(C)C))C(=O)O

>  <INCHIKEY>  (2260) 
PIJAOVMYMMZDIS-ZETCQYMHSA-N

$$$$
Phe_2F_6OMe
     RDKit          2D

 15 15  0  0  0  0  0  0  0  0999 V2000
   -1.9775    1.5683    0.0000 N   0  0  0  0  0  0  0  0  0  0  0  0
   -1.9913    0.0683    0.0000 C   0  0  0  0  0  0  0  0  0  0  0  0
   -0.6992   -0.6936    0.0000 C   0  0  0  0  0  0  0  0  0  0  0  0
    0.6067    0.0444    0.0000 C   0  0  0  0  0  0  0  0  0  0  0  0
    0.6205    1.5443    0.0000 C   0  0  0  0  0  0  0  0  0  0  0  0
   -0.6716    2.3063    0.0000 F   0  0  0  0  0  0  0  0  0  0  0  0
    1.9264    2.2824    0.0000 C   0  0  0  0  0  0  0  0  0  0  0  0
    3.2184    1.5204    0.0000 C   0  0  0  0  0  0  0  0  0  0  0  0
    3.2046    0.0205    0.0000 C   0  0  0  0  0  0  0  0  0  0  0  0
    1.8987   -0.7175    0.0000 C   0  0  0  0  0  0  0  0  0  0  0  0
    1.8849   -2.2175    0.0000 O   0  0  0  0  0  0  0  0  0  0  0  0
    3.1770   -2.9794    0.0000 C   0  0  0  0  0  0  0  0  0  0  0  0
   -3.2972   -0.6697    0.0000 C   0  0  0  0  0  0  0  0  0  0  0  0
   -3.3110   -2.1696    0.0000 O   0  0  0  0  0  0  0  0  0  0  0  0
   -4.5893    0.0923    0.0000 O   0  0  0  0  0  0  0  0  0  0  0  0
  2  1  1  1
  2  3  1  0
  3  4  1  0
  4  5  2  0
  5  6  1  0
  5  7  1  0
  7  8  2  0
  8  9  1  0
  9 10  2  0
 10 11  1  0
 11 12  1  0
  2 13  1  0
 13 14  2  0
 13 15  1  0
 10  4  1  0
M  END
>  <rName>  (2261) 
Phe_2F_6OMe

>  <PQ_SYMBOL>  (2261) 
Phe_2F_6OMe

>  <FULL_NAME>  (2261) 
(S)-2-amino-3-(2-fluoro-6-methoxyphenyl)propanoic acid

>  <IUPAC_CONDENSED>  (2261) 
Phe(2-F,6-OMe)

>  <IUPAC>  (2261) 
(2S)-2-amino-3-(2-fluoro-6-methoxyphenyl)propanoic acid

>  <TYPE>  (2261) 
Backbone

>  <CLASS>  (2261) 
alpha

>  <ANALOG>  (2261) 
Tyr

>  <MOL_WT>  (2261) 
213.20799999999997

>  <LOGP>  (2261) 
0.7887000000000002

>  <TPSA>  (2261) 
72.55

>  <POPULARITY>  (2261) 
3

>  <PROTECTED>  (2261) 
TRUE

>  <SMILES>  (2261) 
N[C@@H](Cc1(c(F)cccc1OC))C(=O)O

>  <INCHIKEY>  (2261) 
WNWTWYOBFIJWAK-QMMMGPOBSA-N

$$$$
Phe_25diOMe
     RDKit          2D

 16 16  0  0  0  0  0  0  0  0999 V2000
   -1.6870    2.0177    0.0000 N   0  0  0  0  0  0  0  0  0  0  0  0
   -2.2885    0.6435    0.0000 C   0  0  0  0  0  0  0  0  0  0  0  0
   -1.3992   -0.5644    0.0000 C   0  0  0  0  0  0  0  0  0  0  0  0
    0.0916   -0.3983    0.0000 C   0  0  0  0  0  0  0  0  0  0  0  0
    0.6930    0.9759    0.0000 C   0  0  0  0  0  0  0  0  0  0  0  0
    2.1838    1.1420    0.0000 C   0  0  0  0  0  0  0  0  0  0  0  0
    2.7853    2.5162    0.0000 O   0  0  0  0  0  0  0  0  0  0  0  0
    4.2760    2.6823    0.0000 C   0  0  0  0  0  0  0  0  0  0  0  0
    3.0731   -0.0659    0.0000 C   0  0  0  0  0  0  0  0  0  0  0  0
    2.4716   -1.4400    0.0000 C   0  0  0  0  0  0  0  0  0  0  0  0
    0.9808   -1.6062    0.0000 C   0  0  0  0  0  0  0  0  0  0  0  0
    0.3794   -2.9803    0.0000 O   0  0  0  0  0  0  0  0  0  0  0  0
    1.2687   -4.1883    0.0000 C   0  0  0  0  0  0  0  0  0  0  0  0
   -3.7793    0.4774    0.0000 C   0  0  0  0  0  0  0  0  0  0  0  0
   -4.3807   -0.8968    0.0000 O   0  0  0  0  0  0  0  0  0  0  0  0
   -4.6686    1.6853    0.0000 O   0  0  0  0  0  0  0  0  0  0  0  0
  2  1  1  1
  2  3  1  0
  3  4  1  0
  4  5  1  0
  5  6  2  0
  6  7  1  0
  7  8  1  0
  6  9  1  0
  9 10  2  0
 10 11  1  0
 11 12  1  0
 12 13  1  0
  2 14  1  0
 14 15  2  0
 14 16  1  0
 11  4  2  0
M  END
>  <rName>  (2262) 
Phe_25diOMe

>  <PQ_SYMBOL>  (2262) 
Phe_25diOMe

>  <FULL_NAME>  (2262) 
(S)-2-amino-3-(2,5-dimethoxyphenyl)propanoic acid

>  <IUPAC_CONDENSED>  (2262) 
Phe(2,5-diOMe)

>  <IUPAC>  (2262) 
(2S)-2-amino-3-(2,5-dimethoxyphenyl)propanoic acid

>  <TYPE>  (2262) 
Backbone

>  <CLASS>  (2262) 
alpha

>  <ANALOG>  (2262) 
Tyr

>  <MOL_WT>  (2262) 
225.24399999999997

>  <LOGP>  (2262) 
0.6581999999999999

>  <TPSA>  (2262) 
81.78

>  <POPULARITY>  (2262) 
5

>  <PROTECTED>  (2262) 
TRUE

>  <SMILES>  (2262) 
N[C@@H](Cc1(cc(OC)ccc1OC))C(=O)O

>  <INCHIKEY>  (2262) 
CKBYDXAFHYVJPV-VIFPVBQESA-N

$$$$
Phe_3OMe_4F
     RDKit          2D

 15 15  0  0  0  0  0  0  0  0999 V2000
   -2.4309    1.6735    0.0000 N   0  0  0  0  0  0  0  0  0  0  0  0
   -2.5936    0.1823    0.0000 C   0  0  0  0  0  0  0  0  0  0  0  0
   -1.3836   -0.7041    0.0000 C   0  0  0  0  0  0  0  0  0  0  0  0
   -0.0108   -0.0994    0.0000 C   0  0  0  0  0  0  0  0  0  0  0  0
    0.1518    1.3917    0.0000 C   0  0  0  0  0  0  0  0  0  0  0  0
    1.5245    1.9964    0.0000 C   0  0  0  0  0  0  0  0  0  0  0  0
    2.7346    1.1100    0.0000 C   0  0  0  0  0  0  0  0  0  0  0  0
    4.1073    1.7147    0.0000 F   0  0  0  0  0  0  0  0  0  0  0  0
    2.5719   -0.3812    0.0000 C   0  0  0  0  0  0  0  0  0  0  0  0
    3.7820   -1.2676    0.0000 O   0  0  0  0  0  0  0  0  0  0  0  0
    3.6193   -2.7588    0.0000 C   0  0  0  0  0  0  0  0  0  0  0  0
    1.1992   -0.9859    0.0000 C   0  0  0  0  0  0  0  0  0  0  0  0
   -3.9663   -0.4224    0.0000 C   0  0  0  0  0  0  0  0  0  0  0  0
   -4.1290   -1.9135    0.0000 O   0  0  0  0  0  0  0  0  0  0  0  0
   -5.1764    0.4641    0.0000 O   0  0  0  0  0  0  0  0  0  0  0  0
  2  1  1  1
  2  3  1  0
  3  4  1  0
  4  5  1  0
  5  6  2  0
  6  7  1  0
  7  8  1  0
  7  9  2  0
  9 10  1  0
 10 11  1  0
  9 12  1  0
  2 13  1  0
 13 14  2  0
 13 15  1  0
 12  4  2  0
M  END
>  <rName>  (2263) 
Phe_3OMe_4F

>  <PQ_SYMBOL>  (2263) 
Phe_3OMe_4F

>  <FULL_NAME>  (2263) 
(S)-2-amino-3-(4-fluoro-3-methoxyphenyl)propanoic acid

>  <IUPAC_CONDENSED>  (2263) 
Phe(3-OMe,4-F)

>  <IUPAC>  (2263) 
(2S)-2-amino-3-(4-fluoro-3-methoxyphenyl)propanoic acid

>  <TYPE>  (2263) 
Backbone

>  <CLASS>  (2263) 
alpha

>  <ANALOG>  (2263) 
Tyr

>  <MOL_WT>  (2263) 
213.20799999999997

>  <LOGP>  (2263) 
0.7887000000000002

>  <TPSA>  (2263) 
72.55

>  <POPULARITY>  (2263) 
3

>  <PROTECTED>  (2263) 
TRUE

>  <SMILES>  (2263) 
N[C@@H](Cc1(ccc(F)c(OC)c1))C(=O)O

>  <INCHIKEY>  (2263) 
CHRWRFACJVKRNT-QMMMGPOBSA-N

$$$$
Ala_pyrimid5yl_2Cl
     RDKit          2D

 13 13  0  0  0  0  0  0  0  0999 V2000
   -1.5766    1.6851    0.0000 N   0  0  0  0  0  0  0  0  0  0  0  0
   -2.0128    0.2500    0.0000 C   0  0  0  0  0  0  0  0  0  0  0  0
   -0.9880   -0.8454    0.0000 C   0  0  0  0  0  0  0  0  0  0  0  0
    0.4730   -0.5055    0.0000 C   0  0  0  0  0  0  0  0  0  0  0  0
    0.9092    0.9296    0.0000 C   0  0  0  0  0  0  0  0  0  0  0  0
    2.3702    1.2695    0.0000 N   0  0  0  0  0  0  0  0  0  0  0  0
    3.3950    0.1741    0.0000 C   0  0  0  0  0  0  0  0  0  0  0  0
    4.8560    0.5140    0.0000 Cl  0  0  0  0  0  0  0  0  0  0  0  0
    2.9588   -1.2611    0.0000 N   0  0  0  0  0  0  0  0  0  0  0  0
    1.4978   -1.6009    0.0000 C   0  0  0  0  0  0  0  0  0  0  0  0
   -3.4738   -0.0899    0.0000 C   0  0  0  0  0  0  0  0  0  0  0  0
   -3.9100   -1.5250    0.0000 O   0  0  0  0  0  0  0  0  0  0  0  0
   -4.4986    1.0055    0.0000 O   0  0  0  0  0  0  0  0  0  0  0  0
  2  1  1  1
  2  3  1  0
  3  4  1  0
  4  5  1  0
  5  6  2  0
  6  7  1  0
  7  8  1  0
  7  9  2  0
  9 10  1  0
  2 11  1  0
 11 12  2  0
 11 13  1  0
 10  4  2  0
M  END
>  <rName>  (2264) 
Ala_pyrimid5yl_2Cl

>  <PQ_SYMBOL>  (2264) 
Ala_pyrimid5yl_2Cl

>  <FULL_NAME>  (2264) 
(S)-2-amino-3-(2-chloropyrimidin-5-yl)propanoic acid

>  <IUPAC_CONDENSED>  (2264) 
Ala(pyrimid-5-yl(2-Cl))

>  <IUPAC>  (2264) 
(2S)-2-amino-3-(2-chloropyrimidin-5-yl)propanoic acid

>  <TYPE>  (2264) 
Backbone

>  <CLASS>  (2264) 
alpha

>  <ANALOG>  (2264) 
Phe

>  <MOL_WT>  (2264) 
201.613

>  <LOGP>  (2264) 
0.0844000000000002

>  <TPSA>  (2264) 
89.10000000000001

>  <POPULARITY>  (2264) 
2.7

>  <PROTECTED>  (2264) 
TRUE

>  <SMILES>  (2264) 
N[C@@H](Cc1(cnc(Cl)nc1))C(=O)O

>  <INCHIKEY>  (2264) 
XUMJZQKSRIHVPX-YFKPBYRVSA-N

$$$$
Phe_2Me_3NO2
     RDKit          2D

 16 16  0  0  0  0  0  0  0  0999 V2000
   -2.7535    1.6987    0.0000 N   0  0  0  0  0  0  0  0  0  0  0  0
   -2.7597    0.1988    0.0000 C   0  0  0  0  0  0  0  0  0  0  0  0
   -1.4637   -0.5565    0.0000 C   0  0  0  0  0  0  0  0  0  0  0  0
   -0.1616    0.1882    0.0000 C   0  0  0  0  0  0  0  0  0  0  0  0
   -0.1555    1.6881    0.0000 C   0  0  0  0  0  0  0  0  0  0  0  0
    1.1466    2.4328    0.0000 C   0  0  0  0  0  0  0  0  0  0  0  0
    2.4426    1.6775    0.0000 C   0  0  0  0  0  0  0  0  0  0  0  0
    2.4364    0.1776    0.0000 C   0  0  0  0  0  0  0  0  0  0  0  0
    1.1344   -0.5671    0.0000 C   0  0  0  0  0  0  0  0  0  0  0  0
    1.1282   -2.0671    0.0000 C   0  0  0  0  0  0  0  0  0  0  0  0
    3.7324   -0.5777    0.0000 N   0  0  0  0  0  0  0  0  0  0  0  0
    3.7263   -2.0777    0.0000 O   0  0  0  0  0  0  0  0  0  0  0  0
    5.0345    0.1670    0.0000 O   0  0  0  0  0  0  0  0  0  0  0  0
   -4.0618   -0.5459    0.0000 C   0  0  0  0  0  0  0  0  0  0  0  0
   -4.0679   -2.0459    0.0000 O   0  0  0  0  0  0  0  0  0  0  0  0
   -5.3577    0.2094    0.0000 O   0  0  0  0  0  0  0  0  0  0  0  0
  2  1  1  1
  2  3  1  0
  3  4  1  0
  4  5  1  0
  5  6  2  0
  6  7  1  0
  7  8  2  0
  8  9  1  0
  9 10  1  0
  8 11  1  0
 11 12  2  0
 11 13  1  0
  2 14  1  0
 14 15  2  0
 14 16  1  0
  9  4  2  0
M  CHG  2  11   1  13  -1
M  END
>  <rName>  (2265) 
Phe_2Me_3NO2

>  <PQ_SYMBOL>  (2265) 
Phe_2Me_3NO2

>  <FULL_NAME>  (2265) 
(S)-2-amino-3-(2-methyl-3-nitrophenyl)propanoic acid

>  <IUPAC_CONDENSED>  (2265) 
Phe(2-Me,3-NO2)

>  <IUPAC>  (2265) 
(2S)-2-amino-3-(2-methyl-3-nitrophenyl)propanoic acid

>  <TYPE>  (2265) 
Backbone

>  <CLASS>  (2265) 
alpha

>  <ANALOG>  (2265) 
Phe

>  <MOL_WT>  (2265) 
224.21599999999995

>  <LOGP>  (2265) 
0.85762

>  <TPSA>  (2265) 
106.46

>  <POPULARITY>  (2265) 
2.9

>  <PROTECTED>  (2265) 
TRUE

>  <SMILES>  (2265) 
N[C@@H](Cc1(cccc(c1C)[N+](=O)[O-]))C(=O)O

>  <INCHIKEY>  (2265) 
XYBTWNVYEHHMRY-QMMMGPOBSA-N

$$$$
Trp_SO2Ph
     RDKit          2D

 24 26  0  0  0  0  0  0  0  0999 V2000
   -2.7085   -2.5462    0.0000 N   0  0  0  0  0  0  0  0  0  0  0  0
   -3.7900   -1.5068    0.0000 C   0  0  0  0  0  0  0  0  0  0  0  0
   -3.4306   -0.0505    0.0000 C   0  0  0  0  0  0  0  0  0  0  0  0
   -1.9897    0.3664    0.0000 C   0  0  0  0  0  0  0  0  0  0  0  0
   -0.8055   -0.5543    0.0000 C   0  0  0  0  0  0  0  0  0  0  0  0
    0.4361    0.2875    0.0000 N   0  0  0  0  0  0  0  0  0  0  0  0
    0.0192    1.7284    0.0000 C   0  0  0  0  0  0  0  0  0  0  0  0
    0.8110    3.0024    0.0000 C   0  0  0  0  0  0  0  0  0  0  0  0
    0.1036    4.3251    0.0000 C   0  0  0  0  0  0  0  0  0  0  0  0
   -1.3956    4.3739    0.0000 C   0  0  0  0  0  0  0  0  0  0  0  0
   -2.1874    3.0999    0.0000 C   0  0  0  0  0  0  0  0  0  0  0  0
   -1.4800    1.7772    0.0000 C   0  0  0  0  0  0  0  0  0  0  0  0
    1.8469   -0.2221    0.0000 S   0  0  0  0  0  0  0  0  0  0  0  0
    2.3565    1.1886    0.0000 O   0  0  0  0  0  0  0  0  0  0  0  0
    1.3372   -1.6329    0.0000 O   0  0  0  0  0  0  0  0  0  0  0  0
    3.2576   -0.7318    0.0000 C   0  0  0  0  0  0  0  0  0  0  0  0
    3.5216   -2.2083    0.0000 C   0  0  0  0  0  0  0  0  0  0  0  0
    4.9324   -2.7180    0.0000 C   0  0  0  0  0  0  0  0  0  0  0  0
    6.0792   -1.7510    0.0000 C   0  0  0  0  0  0  0  0  0  0  0  0
    5.8151   -0.2745    0.0000 C   0  0  0  0  0  0  0  0  0  0  0  0
    4.4044    0.2352    0.0000 C   0  0  0  0  0  0  0  0  0  0  0  0
   -5.2309   -1.9238    0.0000 C   0  0  0  0  0  0  0  0  0  0  0  0
   -6.3124   -0.8844    0.0000 O   0  0  0  0  0  0  0  0  0  0  0  0
   -5.5902   -3.3801    0.0000 O   0  0  0  0  0  0  0  0  0  0  0  0
  2  1  1  6
  2  3  1  0
  3  4  1  0
  4  5  2  0
  5  6  1  0
  6  7  1  0
  7  8  2  0
  8  9  1  0
  9 10  2  0
 10 11  1  0
 11 12  2  0
  6 13  1  0
 13 14  2  0
 13 15  2  0
 13 16  1  0
 16 17  2  0
 17 18  1  0
 18 19  2  0
 19 20  1  0
 20 21  2  0
  2 22  1  0
 22 23  2  0
 22 24  1  0
 12  7  1  0
 12  4  1  0
 21 16  1  0
M  END
>  <rName>  (2266) 
Trp_SO2Ph

>  <PQ_SYMBOL>  (2266) 
Trp_SO2Ph

>  <FULL_NAME>  (2266) 
1-(phenylsulfonyl)-L-tryptophan

>  <IUPAC_CONDENSED>  (2266) 
Trp(SO2Ph)

>  <IUPAC>  (2266) 
(2S)-2-amino-3-(1-(phenylsulfonyl)-1H-indol-3-yl)propanoic acid

>  <TYPE>  (2266) 
Backbone

>  <CLASS>  (2266) 
alpha

>  <ANALOG>  (2266) 
Trp

>  <MOL_WT>  (2266) 
344.39200000000005

>  <LOGP>  (2266) 
1.8327000000000002

>  <TPSA>  (2266) 
102.39

>  <POPULARITY>  (2266) 
4.4

>  <PROTECTED>  (2266) 
TRUE

>  <SMILES>  (2266) 
N[C@@H](Cc2(cn(c1(ccccc12))S(=O)(=O)c3(ccccc3)))C(=O)O

>  <INCHIKEY>  (2266) 
STFVRFHXBORWAD-HNNXBMFYSA-N

$$$$
Phe_23diOMe
     RDKit          2D

 16 16  0  0  0  0  0  0  0  0999 V2000
   -2.4570    1.8470    0.0000 N   0  0  0  0  0  0  0  0  0  0  0  0
   -2.4398    0.3471    0.0000 C   0  0  0  0  0  0  0  0  0  0  0  0
   -1.1323   -0.3880    0.0000 C   0  0  0  0  0  0  0  0  0  0  0  0
    0.1581    0.3768    0.0000 C   0  0  0  0  0  0  0  0  0  0  0  0
    0.1409    1.8767    0.0000 C   0  0  0  0  0  0  0  0  0  0  0  0
    1.4313    2.6416    0.0000 C   0  0  0  0  0  0  0  0  0  0  0  0
    2.7388    1.9065    0.0000 C   0  0  0  0  0  0  0  0  0  0  0  0
    2.7560    0.4066    0.0000 C   0  0  0  0  0  0  0  0  0  0  0  0
    4.0635   -0.3285    0.0000 O   0  0  0  0  0  0  0  0  0  0  0  0
    4.0807   -1.8284    0.0000 C   0  0  0  0  0  0  0  0  0  0  0  0
    1.4656   -0.3582    0.0000 C   0  0  0  0  0  0  0  0  0  0  0  0
    1.4828   -1.8581    0.0000 O   0  0  0  0  0  0  0  0  0  0  0  0
    0.1924   -2.6230    0.0000 C   0  0  0  0  0  0  0  0  0  0  0  0
   -3.7302   -0.4177    0.0000 C   0  0  0  0  0  0  0  0  0  0  0  0
   -3.7130   -1.9176    0.0000 O   0  0  0  0  0  0  0  0  0  0  0  0
   -5.0377    0.3173    0.0000 O   0  0  0  0  0  0  0  0  0  0  0  0
  2  1  1  1
  2  3  1  0
  3  4  1  0
  4  5  1  0
  5  6  2  0
  6  7  1  0
  7  8  2  0
  8  9  1  0
  9 10  1  0
  8 11  1  0
 11 12  1  0
 12 13  1  0
  2 14  1  0
 14 15  2  0
 14 16  1  0
 11  4  2  0
M  END
>  <rName>  (2267) 
Phe_23diOMe

>  <PQ_SYMBOL>  (2267) 
Phe_23diOMe

>  <FULL_NAME>  (2267) 
(S)-2-amino-3-(2,3-dimethoxyphenyl)propanoic acid

>  <IUPAC_CONDENSED>  (2267) 
Phe(2,3-diOMe)

>  <IUPAC>  (2267) 
(2S)-2-amino-3-(2,3-dimethoxyphenyl)propanoic acid

>  <TYPE>  (2267) 
Backbone

>  <CLASS>  (2267) 
alpha

>  <ANALOG>  (2267) 
Tyr

>  <MOL_WT>  (2267) 
225.24399999999994

>  <LOGP>  (2267) 
0.6581999999999999

>  <TPSA>  (2267) 
81.78

>  <POPULARITY>  (2267) 
5.9

>  <PROTECTED>  (2267) 
TRUE

>  <SMILES>  (2267) 
N[C@@H](Cc1(cccc(OC)c1OC))C(=O)O

>  <INCHIKEY>  (2267) 
JVBIWFOSWSUQAY-QMMMGPOBSA-N

$$$$
Phe_2Me_5OH
     RDKit          2D

 14 14  0  0  0  0  0  0  0  0999 V2000
   -1.4552    1.7882    0.0000 N   0  0  0  0  0  0  0  0  0  0  0  0
   -1.9325    0.3661    0.0000 C   0  0  0  0  0  0  0  0  0  0  0  0
   -0.9397   -0.7583    0.0000 C   0  0  0  0  0  0  0  0  0  0  0  0
    0.5305   -0.4606    0.0000 C   0  0  0  0  0  0  0  0  0  0  0  0
    1.0078    0.9614    0.0000 C   0  0  0  0  0  0  0  0  0  0  0  0
    2.4780    1.2591    0.0000 C   0  0  0  0  0  0  0  0  0  0  0  0
    2.9553    2.6811    0.0000 O   0  0  0  0  0  0  0  0  0  0  0  0
    3.4709    0.1347    0.0000 C   0  0  0  0  0  0  0  0  0  0  0  0
    2.9935   -1.2874    0.0000 C   0  0  0  0  0  0  0  0  0  0  0  0
    1.5234   -1.5850    0.0000 C   0  0  0  0  0  0  0  0  0  0  0  0
    1.0461   -3.0070    0.0000 C   0  0  0  0  0  0  0  0  0  0  0  0
   -3.4027    0.0685    0.0000 C   0  0  0  0  0  0  0  0  0  0  0  0
   -3.8800   -1.3536    0.0000 O   0  0  0  0  0  0  0  0  0  0  0  0
   -4.3955    1.1929    0.0000 O   0  0  0  0  0  0  0  0  0  0  0  0
  2  1  1  1
  2  3  1  0
  3  4  1  0
  4  5  1  0
  5  6  2  0
  6  7  1  0
  6  8  1  0
  8  9  2  0
  9 10  1  0
 10 11  1  0
  2 12  1  0
 12 13  2  0
 12 14  1  0
 10  4  2  0
M  END
>  <rName>  (2268) 
Phe_2Me_5OH

>  <PQ_SYMBOL>  (2268) 
Phe_2Me_5OH

>  <FULL_NAME>  (2268) 
(S)-2-amino-3-(5-hydroxy-2-methylphenyl)propanoic acid

>  <IUPAC_CONDENSED>  (2268) 
Phe(2-Me,5-OH)

>  <IUPAC>  (2268) 
(2S)-2-amino-3-(5-hydroxy-2-methylphenyl)propanoic acid

>  <TYPE>  (2268) 
Backbone

>  <CLASS>  (2268) 
alpha

>  <ANALOG>  (2268) 
Tyr

>  <MOL_WT>  (2268) 
195.21799999999996

>  <LOGP>  (2268) 
0.6550199999999999

>  <TPSA>  (2268) 
83.55

>  <POPULARITY>  (2268) 
9

>  <PROTECTED>  (2268) 
TRUE

>  <SMILES>  (2268) 
N[C@@H](Cc1(cc(O)ccc1C))C(=O)O

>  <INCHIKEY>  (2268) 
SPJQYZBNWVPMDM-VIFPVBQESA-N

$$$$
Ala_pyrazol3yl_1Me
     RDKit          2D

 12 12  0  0  0  0  0  0  0  0999 V2000
   -1.1070    1.6556    0.0000 N   0  0  0  0  0  0  0  0  0  0  0  0
   -1.6374    0.2525    0.0000 C   0  0  0  0  0  0  0  0  0  0  0  0
   -0.6875   -0.9084    0.0000 C   0  0  0  0  0  0  0  0  0  0  0  0
    0.7928   -0.6662    0.0000 C   0  0  0  0  0  0  0  0  0  0  0  0
    1.8589   -1.7215    0.0000 C   0  0  0  0  0  0  0  0  0  0  0  0
    3.1919   -1.0337    0.0000 C   0  0  0  0  0  0  0  0  0  0  0  0
    2.9497    0.4466    0.0000 N   0  0  0  0  0  0  0  0  0  0  0  0
    4.0050    1.5127    0.0000 C   0  0  0  0  0  0  0  0  0  0  0  0
    1.4670    0.6737    0.0000 N   0  0  0  0  0  0  0  0  0  0  0  0
   -3.1177    0.0103    0.0000 C   0  0  0  0  0  0  0  0  0  0  0  0
   -3.6481   -1.3928    0.0000 O   0  0  0  0  0  0  0  0  0  0  0  0
   -4.0676    1.1712    0.0000 O   0  0  0  0  0  0  0  0  0  0  0  0
  2  1  1  1
  2  3  1  0
  3  4  1  0
  4  5  1  0
  5  6  2  0
  6  7  1  0
  7  8  1  0
  7  9  1  0
  2 10  1  0
 10 11  2  0
 10 12  1  0
  9  4  2  0
M  END
>  <rName>  (2269) 
Ala_pyrazol3yl_1Me

>  <PQ_SYMBOL>  (2269) 
Ala_pyrazol3yl_1Me

>  <FULL_NAME>  (2269) 
(S)-2-amino-3-(1-methyl-1H-pyrazol-3-yl)propanoic acid hydrochloride

>  <IUPAC_CONDENSED>  (2269) 
Ala(pyrazol-3-yl(1-Me))

>  <IUPAC>  (2269) 
(2S)-2-amino-3-(1-methyl-1H-pyrazol-3-yl)propanoic acid

>  <TYPE>  (2269) 
Backbone

>  <CLASS>  (2269) 
alpha

>  <ANALOG>  (2269) 
Phe

>  <MOL_WT>  (2269) 
169.184

>  <LOGP>  (2269) 
-0.6255000000000002

>  <TPSA>  (2269) 
81.14

>  <POPULARITY>  (2269) 
4.4

>  <PROTECTED>  (2269) 
TRUE

>  <SMILES>  (2269) 
N[C@@H](Cc1(ccn(C)n1))C(=O)O

>  <INCHIKEY>  (2269) 
ANKMBGGGKCTTGK-LURJTMIESA-N

$$$$
Phe_2F_4NH2_5Me
     RDKit          2D

 15 15  0  0  0  0  0  0  0  0999 V2000
   -1.7432    1.8004    0.0000 N   0  0  0  0  0  0  0  0  0  0  0  0
   -2.2534    0.3899    0.0000 C   0  0  0  0  0  0  0  0  0  0  0  0
   -1.2870   -0.7573    0.0000 C   0  0  0  0  0  0  0  0  0  0  0  0
    0.1897   -0.4940    0.0000 C   0  0  0  0  0  0  0  0  0  0  0  0
    0.7000    0.9165    0.0000 C   0  0  0  0  0  0  0  0  0  0  0  0
    2.1767    1.1799    0.0000 C   0  0  0  0  0  0  0  0  0  0  0  0
    2.6869    2.5904    0.0000 C   0  0  0  0  0  0  0  0  0  0  0  0
    3.1431    0.0327    0.0000 C   0  0  0  0  0  0  0  0  0  0  0  0
    4.6198    0.2961    0.0000 N   0  0  0  0  0  0  0  0  0  0  0  0
    2.6328   -1.3778    0.0000 C   0  0  0  0  0  0  0  0  0  0  0  0
    1.1561   -1.6412    0.0000 C   0  0  0  0  0  0  0  0  0  0  0  0
    0.6458   -3.0517    0.0000 F   0  0  0  0  0  0  0  0  0  0  0  0
   -3.7301    0.1265    0.0000 C   0  0  0  0  0  0  0  0  0  0  0  0
   -4.2404   -1.2840    0.0000 O   0  0  0  0  0  0  0  0  0  0  0  0
   -4.6966    1.2737    0.0000 O   0  0  0  0  0  0  0  0  0  0  0  0
  2  1  1  1
  2  3  1  0
  3  4  1  0
  4  5  1  0
  5  6  2  0
  6  7  1  0
  6  8  1  0
  8  9  1  0
  8 10  2  0
 10 11  1  0
 11 12  1  0
  2 13  1  0
 13 14  2  0
 13 15  1  0
 11  4  2  0
M  END
>  <rName>  (2270) 
Phe_2F_4NH2_5Me

>  <PQ_SYMBOL>  (2270) 
Phe_2F_4NH2_5Me

>  <FULL_NAME>  (2270) 
(S)-2-amino-3-(4-amino-2-fluoro-5-methylphenyl)propanoic acid

>  <IUPAC_CONDENSED>  (2270) 
Phe(2-F,4-NH2,5-Me)

>  <IUPAC>  (2270) 
(2S)-2-amino-3-(4-amino-2-fluoro-5-methylphenyl)propanoic acid

>  <TYPE>  (2270) 
Backbone

>  <CLASS>  (2270) 
alpha

>  <ANALOG>  (2270) 
Phe

>  <MOL_WT>  (2270) 
212.224

>  <LOGP>  (2270) 
0.6707199999999998

>  <TPSA>  (2270) 
89.34

>  <POPULARITY>  (2270) 
2.6

>  <PROTECTED>  (2270) 
TRUE

>  <SMILES>  (2270) 
N[C@@H](Cc1(cc(C)c(N)cc1F))C(=O)O

>  <INCHIKEY>  (2270) 
GRVRWBSYSPQCLZ-VIFPVBQESA-N

$$$$
4Pal_2F_3F
     RDKit          2D

 14 14  0  0  0  0  0  0  0  0999 V2000
   -1.9599    1.7683    0.0000 N   0  0  0  0  0  0  0  0  0  0  0  0
   -2.1168    0.2766    0.0000 C   0  0  0  0  0  0  0  0  0  0  0  0
   -0.9034   -0.6052    0.0000 C   0  0  0  0  0  0  0  0  0  0  0  0
    0.4670    0.0047    0.0000 C   0  0  0  0  0  0  0  0  0  0  0  0
    0.6239    1.4965    0.0000 C   0  0  0  0  0  0  0  0  0  0  0  0
    1.9943    2.1065    0.0000 C   0  0  0  0  0  0  0  0  0  0  0  0
    3.2078    1.2247    0.0000 N   0  0  0  0  0  0  0  0  0  0  0  0
    3.0508   -0.2671    0.0000 C   0  0  0  0  0  0  0  0  0  0  0  0
    4.2643   -1.1489    0.0000 F   0  0  0  0  0  0  0  0  0  0  0  0
    1.6804   -0.8771    0.0000 C   0  0  0  0  0  0  0  0  0  0  0  0
    1.5235   -2.3688    0.0000 F   0  0  0  0  0  0  0  0  0  0  0  0
   -3.4872   -0.3334    0.0000 C   0  0  0  0  0  0  0  0  0  0  0  0
   -3.6441   -1.8252    0.0000 O   0  0  0  0  0  0  0  0  0  0  0  0
   -4.7006    0.5484    0.0000 O   0  0  0  0  0  0  0  0  0  0  0  0
  2  1  1  1
  2  3  1  0
  3  4  1  0
  4  5  1  0
  5  6  2  0
  6  7  1  0
  7  8  2  0
  8  9  1  0
  8 10  1  0
 10 11  1  0
  2 12  1  0
 12 13  2  0
 12 14  1  0
 10  4  2  0
M  END
>  <rName>  (2271) 
4Pal_2F_3F

>  <PQ_SYMBOL>  (2271) 
4Pal_2F_3F

>  <FULL_NAME>  (2271) 
(S)-2-amino-3-(2,3-difluoropyridin-4-yl)propanoic acid

>  <IUPAC_CONDENSED>  (2271) 
4Pal(2-F,3-F)

>  <IUPAC>  (2271) 
(2S)-2-amino-3-(2,3-difluoropyridin-4-yl)propanoic acid

>  <TYPE>  (2271) 
Backbone

>  <CLASS>  (2271) 
alpha

>  <ANALOG>  (2271) 
Phe

>  <MOL_WT>  (2271) 
202.15999999999997

>  <LOGP>  (2271) 
0.31419999999999976

>  <TPSA>  (2271) 
76.21

>  <POPULARITY>  (2271) 
2.4

>  <PROTECTED>  (2271) 
TRUE

>  <SMILES>  (2271) 
N[C@@H](Cc1(ccnc(F)c1F))C(=O)O

>  <INCHIKEY>  (2271) 
WDXYXMTXTPYCLJ-YFKPBYRVSA-N

$$$$
Phe_3CN_4F
     RDKit          2D

 15 15  0  0  0  0  0  0  0  0999 V2000
   -2.5333    1.6163    0.0000 N   0  0  0  0  0  0  0  0  0  0  0  0
   -2.6860    0.1241    0.0000 C   0  0  0  0  0  0  0  0  0  0  0  0
   -1.4701   -0.7543    0.0000 C   0  0  0  0  0  0  0  0  0  0  0  0
   -0.1014   -0.1404    0.0000 C   0  0  0  0  0  0  0  0  0  0  0  0
    0.0513    1.3518    0.0000 C   0  0  0  0  0  0  0  0  0  0  0  0
    1.4199    1.9657    0.0000 C   0  0  0  0  0  0  0  0  0  0  0  0
    2.6358    1.0873    0.0000 C   0  0  0  0  0  0  0  0  0  0  0  0
    4.0045    1.7012    0.0000 F   0  0  0  0  0  0  0  0  0  0  0  0
    2.4832   -0.4049    0.0000 C   0  0  0  0  0  0  0  0  0  0  0  0
    3.6991   -1.2832    0.0000 C   0  0  0  0  0  0  0  0  0  0  0  0
    4.9151   -2.1615    0.0000 N   0  0  0  0  0  0  0  0  0  0  0  0
    1.1145   -1.0187    0.0000 C   0  0  0  0  0  0  0  0  0  0  0  0
   -4.0546   -0.4898    0.0000 C   0  0  0  0  0  0  0  0  0  0  0  0
   -4.2073   -1.9820    0.0000 O   0  0  0  0  0  0  0  0  0  0  0  0
   -5.2706    0.3885    0.0000 O   0  0  0  0  0  0  0  0  0  0  0  0
  2  1  1  1
  2  3  1  0
  3  4  1  0
  4  5  1  0
  5  6  2  0
  6  7  1  0
  7  8  1  0
  7  9  2  0
  9 10  1  0
 10 11  3  0
  9 12  1  0
  2 13  1  0
 13 14  2  0
 13 15  1  0
 12  4  2  0
M  END
>  <rName>  (2272) 
Phe_3CN_4F

>  <PQ_SYMBOL>  (2272) 
Phe_3CN_4F

>  <FULL_NAME>  (2272) 
(S)-2-amino-3-(3-cyano-4-fluorophenyl)propanoic acid

>  <IUPAC_CONDENSED>  (2272) 
Phe(3-CN,4-F)

>  <IUPAC>  (2272) 
(2S)-2-amino-3-(4-fluoro-3-(nitrilomethyl)phenyl)propanoic acid

>  <TYPE>  (2272) 
Backbone

>  <CLASS>  (2272) 
alpha

>  <ANALOG>  (2272) 
Phe

>  <MOL_WT>  (2272) 
208.19199999999998

>  <LOGP>  (2272) 
0.65178

>  <TPSA>  (2272) 
87.11

>  <POPULARITY>  (2272) 
2.6

>  <PROTECTED>  (2272) 
TRUE

>  <SMILES>  (2272) 
N[C@@H](Cc1(ccc(F)c(C#N)c1))C(=O)O

>  <INCHIKEY>  (2272) 
YKTMPWMQKTXZHB-VIFPVBQESA-N

$$$$
Phe_4CHNH2Me
     RDKit          2D

 15 15  0  0  0  0  0  0  0  0999 V2000
   -2.2547    1.6872    0.0000 N   0  0  0  0  0  0  0  0  0  0  0  0
   -2.7489    0.2709    0.0000 C   0  0  0  0  0  0  0  0  0  0  0  0
   -1.7696   -0.8652    0.0000 C   0  0  0  0  0  0  0  0  0  0  0  0
   -0.2959   -0.5852    0.0000 C   0  0  0  0  0  0  0  0  0  0  0  0
    0.1983    0.8311    0.0000 C   0  0  0  0  0  0  0  0  0  0  0  0
    1.6719    1.1111    0.0000 C   0  0  0  0  0  0  0  0  0  0  0  0
    2.6513   -0.0250    0.0000 C   0  0  0  0  0  0  0  0  0  0  0  0
    2.1570   -1.4413    0.0000 C   0  0  0  0  0  0  0  0  0  0  0  0
    0.6834   -1.7213    0.0000 C   0  0  0  0  0  0  0  0  0  0  0  0
    4.1249    0.2550    0.0000 C   0  0  0  0  0  0  0  0  0  0  0  0
    5.1043   -0.8811    0.0000 C   0  0  0  0  0  0  0  0  0  0  0  0
    4.6192    1.6713    0.0000 N   0  0  0  0  0  0  0  0  0  0  0  0
   -4.2225   -0.0091    0.0000 C   0  0  0  0  0  0  0  0  0  0  0  0
   -4.7168   -1.4254    0.0000 O   0  0  0  0  0  0  0  0  0  0  0  0
   -5.2019    1.1270    0.0000 O   0  0  0  0  0  0  0  0  0  0  0  0
  2  1  1  1
  2  3  1  0
  3  4  1  0
  4  5  1  0
  5  6  2  0
  6  7  1  0
  7  8  2  0
  8  9  1  0
  7 10  1  0
 10 11  1  0
 10 12  1  0
  2 13  1  0
 13 14  2  0
 13 15  1  0
  9  4  2  0
M  END
>  <rName>  (2273) 
Phe_4CHNH2Me

>  <PQ_SYMBOL>  (2273) 
Phe_4CHNH2Me

>  <FULL_NAME>  (2273) 
(2S)-2-amino-3-(4-(1-aminoethyl)phenyl)propanoic acid

>  <IUPAC_CONDENSED>  (2273) 
Phe(4-CH(NH2)Me)

>  <IUPAC>  (2273) 
(2S)-2-amino-3-(4-(1-aminoethyl)phenyl)propanoic acid

>  <TYPE>  (2273) 
Backbone

>  <CLASS>  (2273) 
alpha

>  <ANALOG>  (2273) 
Phe

>  <MOL_WT>  (2273) 
208.26099999999997

>  <LOGP>  (2273) 
0.6607000000000001

>  <TPSA>  (2273) 
89.34

>  <POPULARITY>  (2273) 
4.5

>  <PROTECTED>  (2273) 
TRUE

>  <SMILES>  (2273) 
N[C@@H](Cc1(ccc(cc1)C(C)N))C(=O)O

>  <INCHIKEY>  (2273) 
JSFGQFUTQFQLTM-MHPPCMCBSA-N

$$$$
Phe_2CO2H_5OMe
     RDKit          2D

 17 17  0  0  0  0  0  0  0  0999 V2000
   -1.4771    2.3022    0.0000 N   0  0  0  0  0  0  0  0  0  0  0  0
   -2.1654    0.9694    0.0000 C   0  0  0  0  0  0  0  0  0  0  0  0
   -1.3554   -0.2930    0.0000 C   0  0  0  0  0  0  0  0  0  0  0  0
    0.1429   -0.2228    0.0000 C   0  0  0  0  0  0  0  0  0  0  0  0
    0.8313    1.1100    0.0000 C   0  0  0  0  0  0  0  0  0  0  0  0
    2.3296    1.1802    0.0000 C   0  0  0  0  0  0  0  0  0  0  0  0
    3.0180    2.5130    0.0000 O   0  0  0  0  0  0  0  0  0  0  0  0
    4.5163    2.5832    0.0000 C   0  0  0  0  0  0  0  0  0  0  0  0
    3.1397   -0.0823    0.0000 C   0  0  0  0  0  0  0  0  0  0  0  0
    2.4513   -1.4150    0.0000 C   0  0  0  0  0  0  0  0  0  0  0  0
    0.9530   -1.4853    0.0000 C   0  0  0  0  0  0  0  0  0  0  0  0
    0.2646   -2.8180    0.0000 C   0  0  0  0  0  0  0  0  0  0  0  0
   -1.2337   -2.8883    0.0000 O   0  0  0  0  0  0  0  0  0  0  0  0
    1.0747   -4.0805    0.0000 O   0  0  0  0  0  0  0  0  0  0  0  0
   -3.6638    0.8992    0.0000 C   0  0  0  0  0  0  0  0  0  0  0  0
   -4.3521   -0.4336    0.0000 O   0  0  0  0  0  0  0  0  0  0  0  0
   -4.4738    2.1617    0.0000 O   0  0  0  0  0  0  0  0  0  0  0  0
  2  1  1  1
  2  3  1  0
  3  4  1  0
  4  5  1  0
  5  6  2  0
  6  7  1  0
  7  8  1  0
  6  9  1  0
  9 10  2  0
 10 11  1  0
 11 12  1  0
 12 13  2  0
 12 14  1  0
  2 15  1  0
 15 16  2  0
 15 17  1  0
 11  4  2  0
M  END
>  <rName>  (2274) 
Phe_2CO2H_5OMe

>  <PQ_SYMBOL>  (2274) 
Phe_2CO2H_5OMe

>  <FULL_NAME>  (2274) 
(S)-2-(2-amino-2-carboxyethyl)-4-methoxybenzoic acid

>  <IUPAC_CONDENSED>  (2274) 
Phe(2-CO2H,5-OMe)

>  <IUPAC>  (2274) 
2-((2S)-2-amino-3-hydroxy-3-oxopropyl)-4-methoxybenzene-1-carboxylic acid

>  <TYPE>  (2274) 
Backbone

>  <CLASS>  (2274) 
alpha

>  <ANALOG>  (2274) 
Tyr

>  <MOL_WT>  (2274) 
239.22699999999998

>  <LOGP>  (2274) 
0.3478

>  <TPSA>  (2274) 
109.85000000000001

>  <POPULARITY>  (2274) 
2.7

>  <PROTECTED>  (2274) 
TRUE

>  <SMILES>  (2274) 
N[C@@H](Cc1(cc(OC)ccc1C(=O)O))C(=O)O

>  <INCHIKEY>  (2274) 
PNUNUFVULBFLNV-VIFPVBQESA-N

$$$$
Ala_Cbz
     RDKit          2D

 16 17  0  0  0  0  0  0  0  0999 V2000
   -2.7985    1.6442    0.0000 N   0  0  0  0  0  0  0  0  0  0  0  0
   -2.9582    0.1527    0.0000 C   0  0  0  0  0  0  0  0  0  0  0  0
   -1.7464   -0.7313    0.0000 C   0  0  0  0  0  0  0  0  0  0  0  0
   -0.3749   -0.1239    0.0000 C   0  0  0  0  0  0  0  0  0  0  0  0
   -0.2151    1.3676    0.0000 C   0  0  0  0  0  0  0  0  0  0  0  0
    1.1564    1.9750    0.0000 C   0  0  0  0  0  0  0  0  0  0  0  0
    2.3682    1.0909    0.0000 C   0  0  0  0  0  0  0  0  0  0  0  0
    3.8360    1.3999    0.0000 C   0  0  0  0  0  0  0  0  0  0  0  0
    4.5834    0.0994    0.0000 O   0  0  0  0  0  0  0  0  0  0  0  0
    3.5776   -1.0133    0.0000 C   0  0  0  0  0  0  0  0  0  0  0  0
    3.8866   -2.4811    0.0000 O   0  0  0  0  0  0  0  0  0  0  0  0
    2.2085   -0.4005    0.0000 C   0  0  0  0  0  0  0  0  0  0  0  0
    0.8369   -1.0080    0.0000 C   0  0  0  0  0  0  0  0  0  0  0  0
   -4.3297   -0.4547    0.0000 C   0  0  0  0  0  0  0  0  0  0  0  0
   -4.4894   -1.9462    0.0000 O   0  0  0  0  0  0  0  0  0  0  0  0
   -5.5415    0.4293    0.0000 O   0  0  0  0  0  0  0  0  0  0  0  0
  2  1  1  1
  2  3  1  0
  3  4  1  0
  4  5  1  0
  5  6  2  0
  6  7  1  0
  7  8  1  0
  8  9  1  0
  9 10  1  0
 10 11  2  0
 10 12  1  0
 12 13  1  0
  2 14  1  0
 14 15  2  0
 14 16  1  0
 12  7  2  0
 13  4  2  0
M  END
>  <rName>  (2275) 
Ala_Cbz

>  <PQ_SYMBOL>  (2275) 
Ala_Cbz

>  <FULL_NAME>  (2275) 
(S)-2-amino-3-(3-oxo-1,3-dihydroisobenzofuran-5-yl)propanoic acid

>  <IUPAC_CONDENSED>  (2275) 
Ala(Cbz)

>  <IUPAC>  (2275) 
(2S)-2-amino-3-(9-oxo-8-oxabicyclo[4.3.0]nona-1,3,5-trien-3-yl)propanoic acid

>  <TYPE>  (2275) 
Backbone

>  <CLASS>  (2275) 
alpha

>  <ANALOG>  (2275) 
Phe

>  <MOL_WT>  (2275) 
221.21199999999996

>  <LOGP>  (2275) 
0.31139999999999984

>  <TPSA>  (2275) 
89.62

>  <POPULARITY>  (2275) 
2.5

>  <PROTECTED>  (2275) 
TRUE

>  <SMILES>  (2275) 
N[C@@H](Cc2(ccc1(COC(=O)c1c2)))C(=O)O

>  <INCHIKEY>  (2275) 
HNVCAYGATSQKNQ-VIFPVBQESA-N

$$$$
4Pal_2Cl_6CF3
     RDKit          2D

 17 17  0  0  0  0  0  0  0  0999 V2000
   -2.9339    1.4642    0.0000 N   0  0  0  0  0  0  0  0  0  0  0  0
   -2.9829   -0.0350    0.0000 C   0  0  0  0  0  0  0  0  0  0  0  0
   -1.7090   -0.8270    0.0000 C   0  0  0  0  0  0  0  0  0  0  0  0
   -0.3862   -0.1198    0.0000 C   0  0  0  0  0  0  0  0  0  0  0  0
   -0.3372    1.3794    0.0000 C   0  0  0  0  0  0  0  0  0  0  0  0
    0.9856    2.0866    0.0000 C   0  0  0  0  0  0  0  0  0  0  0  0
    1.0346    3.5858    0.0000 Cl  0  0  0  0  0  0  0  0  0  0  0  0
    2.2595    1.2946    0.0000 N   0  0  0  0  0  0  0  0  0  0  0  0
    2.2105   -0.2046    0.0000 C   0  0  0  0  0  0  0  0  0  0  0  0
    0.8877   -0.9118    0.0000 C   0  0  0  0  0  0  0  0  0  0  0  0
    3.4844   -0.9966    0.0000 C   0  0  0  0  0  0  0  0  0  0  0  0
    4.7582   -1.7886    0.0000 F   0  0  0  0  0  0  0  0  0  0  0  0
    2.6924   -2.2705    0.0000 F   0  0  0  0  0  0  0  0  0  0  0  0
    4.2764    0.2772    0.0000 F   0  0  0  0  0  0  0  0  0  0  0  0
   -4.3057   -0.7422    0.0000 C   0  0  0  0  0  0  0  0  0  0  0  0
   -4.3547   -2.2414    0.0000 O   0  0  0  0  0  0  0  0  0  0  0  0
   -5.5796    0.0498    0.0000 O   0  0  0  0  0  0  0  0  0  0  0  0
  2  1  1  1
  2  3  1  0
  3  4  1  0
  4  5  2  0
  5  6  1  0
  6  7  1  0
  6  8  2  0
  8  9  1  0
  9 10  2  0
  9 11  1  0
 11 12  1  0
 11 13  1  0
 11 14  1  0
  2 15  1  0
 15 16  2  0
 15 17  1  0
 10  4  1  0
M  END
>  <rName>  (2276) 
4Pal_2Cl_6CF3

>  <PQ_SYMBOL>  (2276) 
4Pal_2Cl_6CF3

>  <FULL_NAME>  (2276) 
(S)-2-amino-3-(2-chloro-6-(trifluoromethyl)pyridin-4-yl)propanoic acid

>  <IUPAC_CONDENSED>  (2276) 
4Pal(2-Cl,6-CF3)

>  <IUPAC>  (2276) 
(2S)-2-amino-3-(2-chloro-6-(trifluoromethyl)pyridin-4-yl)propanoic acid

>  <TYPE>  (2276) 
Backbone

>  <CLASS>  (2276) 
alpha

>  <ANALOG>  (2276) 
Phe

>  <MOL_WT>  (2276) 
268.62199999999996

>  <LOGP>  (2276) 
1.7082000000000002

>  <TPSA>  (2276) 
76.21

>  <POPULARITY>  (2276) 
2.2

>  <PROTECTED>  (2276) 
TRUE

>  <SMILES>  (2276) 
N[C@@H](Cc1(cc(Cl)nc(c1)C(F)(F)F))C(=O)O

>  <INCHIKEY>  (2276) 
NSHNABXFUYLLBI-YFKPBYRVSA-N

$$$$
Phe_4CH2CN
     RDKit          2D

 15 15  0  0  0  0  0  0  0  0999 V2000
   -2.5677    1.6361    0.0000 N   0  0  0  0  0  0  0  0  0  0  0  0
   -2.8881    0.1707    0.0000 C   0  0  0  0  0  0  0  0  0  0  0  0
   -1.7791   -0.8394    0.0000 C   0  0  0  0  0  0  0  0  0  0  0  0
   -0.3499   -0.3841    0.0000 C   0  0  0  0  0  0  0  0  0  0  0  0
   -0.0296    1.0813    0.0000 C   0  0  0  0  0  0  0  0  0  0  0  0
    1.3996    1.5366    0.0000 C   0  0  0  0  0  0  0  0  0  0  0  0
    2.5086    0.5265    0.0000 C   0  0  0  0  0  0  0  0  0  0  0  0
    2.1882   -0.9389    0.0000 C   0  0  0  0  0  0  0  0  0  0  0  0
    0.7590   -1.3942    0.0000 C   0  0  0  0  0  0  0  0  0  0  0  0
    3.9378    0.9818    0.0000 C   0  0  0  0  0  0  0  0  0  0  0  0
    5.0467   -0.0283    0.0000 C   0  0  0  0  0  0  0  0  0  0  0  0
    6.1556   -1.0384    0.0000 N   0  0  0  0  0  0  0  0  0  0  0  0
   -4.3173   -0.2847    0.0000 C   0  0  0  0  0  0  0  0  0  0  0  0
   -4.6376   -1.7501    0.0000 O   0  0  0  0  0  0  0  0  0  0  0  0
   -5.4262    0.7254    0.0000 O   0  0  0  0  0  0  0  0  0  0  0  0
  2  1  1  1
  2  3  1  0
  3  4  1  0
  4  5  1  0
  5  6  2  0
  6  7  1  0
  7  8  2  0
  8  9  1  0
  7 10  1  0
 10 11  1  0
 11 12  3  0
  2 13  1  0
 13 14  2  0
 13 15  1  0
  9  4  2  0
M  END
>  <rName>  (2277) 
Phe_4CH2CN

>  <PQ_SYMBOL>  (2277) 
Phe_4CH2CN

>  <FULL_NAME>  (2277) 
(S)-2-amino-3-(4-(cyanomethyl)phenyl)propanoic acid

>  <IUPAC_CONDENSED>  (2277) 
Phe(4-CH2CN)

>  <IUPAC>  (2277) 
(2S)-2-amino-3-(4-(2-nitriloethyl)phenyl)propanoic acid

>  <TYPE>  (2277) 
Backbone

>  <CLASS>  (2277) 
alpha

>  <ANALOG>  (2277) 
Phe

>  <MOL_WT>  (2277) 
204.22899999999996

>  <LOGP>  (2277) 
0.7070800000000002

>  <TPSA>  (2277) 
87.11

>  <POPULARITY>  (2277) 
2.7

>  <PROTECTED>  (2277) 
TRUE

>  <SMILES>  (2277) 
N[C@@H](Cc1(ccc(cc1)CC#N))C(=O)O

>  <INCHIKEY>  (2277) 
ZETRWSHGJHOCAH-JTQLQIEISA-N

$$$$
Phe_3CN_4Cl
     RDKit          2D

 15 15  0  0  0  0  0  0  0  0999 V2000
   -2.5333    1.6163    0.0000 N   0  0  0  0  0  0  0  0  0  0  0  0
   -2.6860    0.1241    0.0000 C   0  0  0  0  0  0  0  0  0  0  0  0
   -1.4701   -0.7543    0.0000 C   0  0  0  0  0  0  0  0  0  0  0  0
   -0.1014   -0.1404    0.0000 C   0  0  0  0  0  0  0  0  0  0  0  0
    0.0513    1.3518    0.0000 C   0  0  0  0  0  0  0  0  0  0  0  0
    1.4199    1.9657    0.0000 C   0  0  0  0  0  0  0  0  0  0  0  0
    2.6358    1.0873    0.0000 C   0  0  0  0  0  0  0  0  0  0  0  0
    4.0045    1.7012    0.0000 Cl  0  0  0  0  0  0  0  0  0  0  0  0
    2.4832   -0.4049    0.0000 C   0  0  0  0  0  0  0  0  0  0  0  0
    3.6991   -1.2832    0.0000 C   0  0  0  0  0  0  0  0  0  0  0  0
    4.9151   -2.1615    0.0000 N   0  0  0  0  0  0  0  0  0  0  0  0
    1.1145   -1.0187    0.0000 C   0  0  0  0  0  0  0  0  0  0  0  0
   -4.0546   -0.4898    0.0000 C   0  0  0  0  0  0  0  0  0  0  0  0
   -4.2073   -1.9820    0.0000 O   0  0  0  0  0  0  0  0  0  0  0  0
   -5.2706    0.3885    0.0000 O   0  0  0  0  0  0  0  0  0  0  0  0
  2  1  1  1
  2  3  1  0
  3  4  1  0
  4  5  1  0
  5  6  2  0
  6  7  1  0
  7  8  1  0
  7  9  2  0
  9 10  1  0
 10 11  3  0
  9 12  1  0
  2 13  1  0
 13 14  2  0
 13 15  1  0
 12  4  2  0
M  END
>  <rName>  (2278) 
Phe_3CN_4Cl

>  <PQ_SYMBOL>  (2278) 
Phe_3CN_4Cl

>  <FULL_NAME>  (2278) 
(S)-2-amino-3-(4-chloro-3-cyanophenyl)propanoic acid

>  <IUPAC_CONDENSED>  (2278) 
Phe(3-CN,4-Cl)

>  <IUPAC>  (2278) 
(2S)-2-amino-3-(4-chloro-3-(nitrilomethyl)phenyl)propanoic acid

>  <TYPE>  (2278) 
Backbone

>  <CLASS>  (2278) 
alpha

>  <ANALOG>  (2278) 
Phe

>  <MOL_WT>  (2278) 
224.647

>  <LOGP>  (2278) 
1.1660800000000002

>  <TPSA>  (2278) 
87.11

>  <POPULARITY>  (2278) 
3

>  <PROTECTED>  (2278) 
TRUE

>  <SMILES>  (2278) 
N[C@@H](Cc1(ccc(Cl)c(C#N)c1))C(=O)O

>  <INCHIKEY>  (2278) 
XIFVMTACZDXVHK-VIFPVBQESA-N

$$$$
Phe_2Me_6F
     RDKit          2D

 14 14  0  0  0  0  0  0  0  0999 V2000
    1.4856    1.6416    0.0000 N   0  0  0  0  0  0  0  0  0  0  0  0
    1.7624    0.1673    0.0000 C   0  0  0  0  0  0  0  0  0  0  0  0
    0.6240   -0.8095    0.0000 C   0  0  0  0  0  0  0  0  0  0  0  0
   -0.7911   -0.3120    0.0000 C   0  0  0  0  0  0  0  0  0  0  0  0
   -1.9295   -1.2888    0.0000 C   0  0  0  0  0  0  0  0  0  0  0  0
   -1.6527   -2.7631    0.0000 C   0  0  0  0  0  0  0  0  0  0  0  0
   -3.3446   -0.7913    0.0000 C   0  0  0  0  0  0  0  0  0  0  0  0
   -3.6213    0.6829    0.0000 C   0  0  0  0  0  0  0  0  0  0  0  0
   -2.4830    1.6597    0.0000 C   0  0  0  0  0  0  0  0  0  0  0  0
   -1.0678    1.1622    0.0000 C   0  0  0  0  0  0  0  0  0  0  0  0
    0.0705    2.1390    0.0000 F   0  0  0  0  0  0  0  0  0  0  0  0
    3.1775   -0.3302    0.0000 C   0  0  0  0  0  0  0  0  0  0  0  0
    3.4542   -1.8044    0.0000 O   0  0  0  0  0  0  0  0  0  0  0  0
    4.3158    0.6466    0.0000 O   0  0  0  0  0  0  0  0  0  0  0  0
  2  1  1  6
  2  3  1  0
  3  4  1  0
  4  5  2  0
  5  6  1  0
  5  7  1  0
  7  8  2  0
  8  9  1  0
  9 10  2  0
 10 11  1  0
  2 12  1  0
 12 13  2  0
 12 14  1  0
 10  4  1  0
M  END
>  <rName>  (2279) 
Phe_2Me_6F

>  <PQ_SYMBOL>  (2279) 
Phe_2Me_6F

>  <FULL_NAME>  (2279) 
(S)-2-amino-3-(2-fluoro-6-methylphenyl)propanoic acid

>  <IUPAC_CONDENSED>  (2279) 
Phe(2-Me,6-F)

>  <IUPAC>  (2279) 
(2S)-2-amino-3-(2-fluoro-6-methylphenyl)propanoic acid

>  <TYPE>  (2279) 
Backbone

>  <CLASS>  (2279) 
alpha

>  <ANALOG>  (2279) 
Phe

>  <MOL_WT>  (2279) 
197.20899999999995

>  <LOGP>  (2279) 
1.0885200000000002

>  <TPSA>  (2279) 
63.32000000000001

>  <POPULARITY>  (2279) 
3.6

>  <PROTECTED>  (2279) 
TRUE

>  <SMILES>  (2279) 
N[C@@H](Cc1(c(C)cccc1F))C(=O)O

>  <INCHIKEY>  (2279) 
MSMXPWDERTUNKF-VIFPVBQESA-N

$$$$
Phe_23_56tetraMe
     RDKit          2D

 16 16  0  0  0  0  0  0  0  0999 V2000
   -1.9360    1.5591    0.0000 N   0  0  0  0  0  0  0  0  0  0  0  0
   -2.2149    0.0852    0.0000 C   0  0  0  0  0  0  0  0  0  0  0  0
   -1.0780   -0.8933    0.0000 C   0  0  0  0  0  0  0  0  0  0  0  0
    0.3379   -0.3979    0.0000 C   0  0  0  0  0  0  0  0  0  0  0  0
    0.6168    1.0760    0.0000 C   0  0  0  0  0  0  0  0  0  0  0  0
   -0.5202    2.0544    0.0000 C   0  0  0  0  0  0  0  0  0  0  0  0
    2.0326    1.5713    0.0000 C   0  0  0  0  0  0  0  0  0  0  0  0
    2.3115    3.0452    0.0000 C   0  0  0  0  0  0  0  0  0  0  0  0
    3.1695    0.5929    0.0000 C   0  0  0  0  0  0  0  0  0  0  0  0
    2.8906   -0.8810    0.0000 C   0  0  0  0  0  0  0  0  0  0  0  0
    4.0275   -1.8595    0.0000 C   0  0  0  0  0  0  0  0  0  0  0  0
    1.4748   -1.3764    0.0000 C   0  0  0  0  0  0  0  0  0  0  0  0
    1.1959   -2.8502    0.0000 C   0  0  0  0  0  0  0  0  0  0  0  0
   -3.6308   -0.4102    0.0000 C   0  0  0  0  0  0  0  0  0  0  0  0
   -3.9097   -1.8840    0.0000 O   0  0  0  0  0  0  0  0  0  0  0  0
   -4.7677    0.5683    0.0000 O   0  0  0  0  0  0  0  0  0  0  0  0
  2  1  1  1
  2  3  1  0
  3  4  1  0
  4  5  2  0
  5  6  1  0
  5  7  1  0
  7  8  1  0
  7  9  2  0
  9 10  1  0
 10 11  1  0
 10 12  2  0
 12 13  1  0
  2 14  1  0
 14 15  2  0
 14 16  1  0
 12  4  1  0
M  END
>  <rName>  (2280) 
Phe_23_56tetraMe

>  <PQ_SYMBOL>  (2280) 
Phe_23_56tetraMe

>  <FULL_NAME>  (2280) 
(S)-2-amino-3-(2,3,5,6-tetramethylphenyl)propanoic acid

>  <IUPAC_CONDENSED>  (2280) 
Phe(2,3,5,6-tetraMe)

>  <IUPAC>  (2280) 
(2S)-2-amino-3-(2,3,5,6-tetramethylphenyl)propanoic acid

>  <TYPE>  (2280) 
Backbone

>  <CLASS>  (2280) 
alpha

>  <ANALOG>  (2280) 
Phe

>  <MOL_WT>  (2280) 
221.29999999999995

>  <LOGP>  (2280) 
1.8746800000000003

>  <TPSA>  (2280) 
63.32000000000001

>  <POPULARITY>  (2280) 
3.9

>  <PROTECTED>  (2280) 
TRUE

>  <SMILES>  (2280) 
N[C@@H](Cc1(c(C)c(C)cc(C)c1C))C(=O)O

>  <INCHIKEY>  (2280) 
XTWCLJMKYNOOMH-LBPRGKRZSA-N

$$$$
Phe_2CO2H_6CF3
     RDKit          2D

 19 19  0  0  0  0  0  0  0  0999 V2000
    2.0909    0.3307    0.0000 N   0  0  0  0  0  0  0  0  0  0  0  0
    1.7602   -0.5962    0.0000 C   0  0  0  0  0  0  0  0  0  0  0  0
    0.3286   -1.0440    0.0000 C   0  0  0  0  0  0  0  0  0  0  0  0
   -0.7750   -0.0280    0.0000 C   0  0  0  0  0  0  0  0  0  0  0  0
   -2.2066   -0.4758    0.0000 C   0  0  0  0  0  0  0  0  0  0  0  0
   -3.3102    0.5401    0.0000 C   0  0  0  0  0  0  0  0  0  0  0  0
   -2.9822    2.0038    0.0000 C   0  0  0  0  0  0  0  0  0  0  0  0
   -1.5505    2.4516    0.0000 C   0  0  0  0  0  0  0  0  0  0  0  0
   -0.4470    1.4357    0.0000 C   0  0  0  0  0  0  0  0  0  0  0  0
    0.9846    1.8834    0.0000 C   0  0  0  0  0  0  0  0  0  0  0  0
    2.4163    2.3312    0.0000 F   0  0  0  0  0  0  0  0  0  0  0  0
    1.3907    0.9870    0.0000 F   0  0  0  0  0  0  0  0  0  0  0  0
    0.5369    3.3150    0.0000 F   0  0  0  0  0  0  0  0  0  0  0  0
   -2.5346   -1.9395    0.0000 C   0  0  0  0  0  0  0  0  0  0  0  0
   -1.4310   -2.9554    0.0000 O   0  0  0  0  0  0  0  0  0  0  0  0
   -3.9662   -2.3873    0.0000 O   0  0  0  0  0  0  0  0  0  0  0  0
    2.8638   -1.6121    0.0000 C   0  0  0  0  0  0  0  0  0  0  0  0
    2.5358   -3.0758    0.0000 O   0  0  0  0  0  0  0  0  0  0  0  0
    4.2954   -1.1643    0.0000 O   0  0  0  0  0  0  0  0  0  0  0  0
  2  1  1  6
  2  3  1  0
  3  4  1  0
  4  5  2  0
  5  6  1  0
  6  7  2  0
  7  8  1  0
  8  9  2  0
  9 10  1  0
 10 11  1  0
 10 12  1  0
 10 13  1  0
  5 14  1  0
 14 15  2  0
 14 16  1  0
  2 17  1  0
 17 18  2  0
 17 19  1  0
  9  4  1  0
M  END
>  <rName>  (2281) 
Phe_2CO2H_6CF3

>  <PQ_SYMBOL>  (2281) 
Phe_2CO2H_6CF3

>  <FULL_NAME>  (2281) 
(S)-2-(2-amino-2-carboxyethyl)-3-(trifluoromethyl)benzoic acid

>  <IUPAC_CONDENSED>  (2281) 
Phe(2-CO2H,6-CF3)

>  <IUPAC>  (2281) 
2-((2S)-2-amino-3-hydroxy-3-oxopropyl)-3-(trifluoromethyl)benzoic acid

>  <TYPE>  (2281) 
Backbone

>  <CLASS>  (2281) 
alpha

>  <ANALOG>  (2281) 
Phe

>  <MOL_WT>  (2281) 
277.1979999999999

>  <LOGP>  (2281) 
1.3580000000000003

>  <TPSA>  (2281) 
100.62000000000002

>  <POPULARITY>  (2281) 
2.3

>  <PROTECTED>  (2281) 
TRUE

>  <SMILES>  (2281) 
N[C@@H](Cc1(c(cccc1C(F)(F)F)C(=O)O))C(=O)O

>  <INCHIKEY>  (2281) 
HZAMCFOTTVEYJM-QMMMGPOBSA-N

$$$$
2Pal_3OH_6Me
     RDKit          2D

 14 14  0  0  0  0  0  0  0  0999 V2000
   -1.4552    1.7882    0.0000 N   0  0  0  0  0  0  0  0  0  0  0  0
   -1.9325    0.3661    0.0000 C   0  0  0  0  0  0  0  0  0  0  0  0
   -0.9397   -0.7583    0.0000 C   0  0  0  0  0  0  0  0  0  0  0  0
    0.5305   -0.4606    0.0000 C   0  0  0  0  0  0  0  0  0  0  0  0
    1.0078    0.9614    0.0000 N   0  0  0  0  0  0  0  0  0  0  0  0
    2.4780    1.2591    0.0000 C   0  0  0  0  0  0  0  0  0  0  0  0
    2.9553    2.6811    0.0000 C   0  0  0  0  0  0  0  0  0  0  0  0
    3.4709    0.1347    0.0000 C   0  0  0  0  0  0  0  0  0  0  0  0
    2.9935   -1.2874    0.0000 C   0  0  0  0  0  0  0  0  0  0  0  0
    1.5234   -1.5850    0.0000 C   0  0  0  0  0  0  0  0  0  0  0  0
    1.0461   -3.0070    0.0000 O   0  0  0  0  0  0  0  0  0  0  0  0
   -3.4027    0.0685    0.0000 C   0  0  0  0  0  0  0  0  0  0  0  0
   -3.8800   -1.3536    0.0000 O   0  0  0  0  0  0  0  0  0  0  0  0
   -4.3955    1.1929    0.0000 O   0  0  0  0  0  0  0  0  0  0  0  0
  2  1  1  1
  2  3  1  0
  3  4  1  0
  4  5  1  0
  5  6  2  0
  6  7  1  0
  6  8  1  0
  8  9  2  0
  9 10  1  0
 10 11  1  0
  2 12  1  0
 12 13  2  0
 12 14  1  0
 10  4  2  0
M  END
>  <rName>  (2282) 
2Pal_3OH_6Me

>  <PQ_SYMBOL>  (2282) 
2Pal_3OH_6Me

>  <FULL_NAME>  (2282) 
(S)-2-amino-3-(3-hydroxy-6-methylpyridin-2-yl)propanoic acid

>  <IUPAC_CONDENSED>  (2282) 
2Pal(3-OH,6-Me)

>  <IUPAC>  (2282) 
(2S)-2-amino-3-(3-hydroxy-6-methylpyridin-2-yl)propanoic acid

>  <TYPE>  (2282) 
Backbone

>  <CLASS>  (2282) 
alpha

>  <ANALOG>  (2282) 
Phe

>  <MOL_WT>  (2282) 
196.206

>  <LOGP>  (2282) 
0.05001999999999995

>  <TPSA>  (2282) 
96.44000000000001

>  <POPULARITY>  (2282) 
2.8

>  <PROTECTED>  (2282) 
TRUE

>  <SMILES>  (2282) 
N[C@@H](Cc1(nc(C)ccc1O))C(=O)O

>  <INCHIKEY>  (2282) 
XUQOYIGQUKSSDM-LURJTMIESA-N

$$$$
Phe_3CO2H_4OMe
     RDKit          2D

 17 17  0  0  0  0  0  0  0  0999 V2000
   -2.2707    2.1590    0.0000 N   0  0  0  0  0  0  0  0  0  0  0  0
   -2.5866    0.6926    0.0000 C   0  0  0  0  0  0  0  0  0  0  0  0
   -1.4747   -0.3141    0.0000 C   0  0  0  0  0  0  0  0  0  0  0  0
   -0.0468    0.1455    0.0000 C   0  0  0  0  0  0  0  0  0  0  0  0
    0.2691    1.6118    0.0000 C   0  0  0  0  0  0  0  0  0  0  0  0
    1.6969    2.0714    0.0000 C   0  0  0  0  0  0  0  0  0  0  0  0
    2.8089    1.0647    0.0000 C   0  0  0  0  0  0  0  0  0  0  0  0
    4.2367    1.5243    0.0000 O   0  0  0  0  0  0  0  0  0  0  0  0
    5.3487    0.5175    0.0000 C   0  0  0  0  0  0  0  0  0  0  0  0
    2.4930   -0.4017    0.0000 C   0  0  0  0  0  0  0  0  0  0  0  0
    1.0651   -0.8613    0.0000 C   0  0  0  0  0  0  0  0  0  0  0  0
    0.7492   -2.3276    0.0000 C   0  0  0  0  0  0  0  0  0  0  0  0
   -0.6786   -2.7872    0.0000 O   0  0  0  0  0  0  0  0  0  0  0  0
    1.8612   -3.3344    0.0000 O   0  0  0  0  0  0  0  0  0  0  0  0
   -4.0145    0.2330    0.0000 C   0  0  0  0  0  0  0  0  0  0  0  0
   -4.3304   -1.2333    0.0000 O   0  0  0  0  0  0  0  0  0  0  0  0
   -5.1264    1.2398    0.0000 O   0  0  0  0  0  0  0  0  0  0  0  0
  2  1  1  1
  2  3  1  0
  3  4  1  0
  4  5  1  0
  5  6  2  0
  6  7  1  0
  7  8  1  0
  8  9  1  0
  7 10  2  0
 10 11  1  0
 11 12  1  0
 12 13  2  0
 12 14  1  0
  2 15  1  0
 15 16  2  0
 15 17  1  0
 11  4  2  0
M  END
>  <rName>  (2283) 
Phe_3CO2H_4OMe

>  <PQ_SYMBOL>  (2283) 
Phe_3CO2H_4OMe

>  <FULL_NAME>  (2283) 
(S)-2-(2-amino-2-carboxyethyl)-5-methoxybenzoic acid

>  <IUPAC_CONDENSED>  (2283) 
Phe(3-CO2H,4-OMe)

>  <IUPAC>  (2283) 
2-((2S)-2-amino-3-hydroxy-3-oxopropyl)-5-methoxybenzene-1-carboxylic acid

>  <TYPE>  (2283) 
Backbone

>  <CLASS>  (2283) 
alpha

>  <ANALOG>  (2283) 
Tyr

>  <MOL_WT>  (2283) 
239.22699999999998

>  <LOGP>  (2283) 
0.3478

>  <TPSA>  (2283) 
109.85000000000001

>  <POPULARITY>  (2283) 
2.8

>  <PROTECTED>  (2283) 
TRUE

>  <SMILES>  (2283) 
N[C@@H](Cc1(ccc(OC)cc1C(=O)O))C(=O)O

>  <INCHIKEY>  (2283) 
ZOQWJVCCCDKBAF-VIFPVBQESA-N

$$$$
Ala_pyrid3yl_2OMe
     RDKit          2D

 14 14  0  0  0  0  0  0  0  0999 V2000
   -1.9781    1.7869    0.0000 N   0  0  0  0  0  0  0  0  0  0  0  0
   -2.0323    0.2879    0.0000 C   0  0  0  0  0  0  0  0  0  0  0  0
   -0.7612   -0.5086    0.0000 C   0  0  0  0  0  0  0  0  0  0  0  0
    0.5641    0.1940    0.0000 C   0  0  0  0  0  0  0  0  0  0  0  0
    0.6183    1.6931    0.0000 C   0  0  0  0  0  0  0  0  0  0  0  0
    1.9435    2.3957    0.0000 C   0  0  0  0  0  0  0  0  0  0  0  0
    3.2146    1.5993    0.0000 C   0  0  0  0  0  0  0  0  0  0  0  0
    3.1605    0.1002    0.0000 N   0  0  0  0  0  0  0  0  0  0  0  0
    1.8352   -0.6024    0.0000 C   0  0  0  0  0  0  0  0  0  0  0  0
    1.7811   -2.1014    0.0000 O   0  0  0  0  0  0  0  0  0  0  0  0
    3.0522   -2.8978    0.0000 C   0  0  0  0  0  0  0  0  0  0  0  0
   -3.3575   -0.4148    0.0000 C   0  0  0  0  0  0  0  0  0  0  0  0
   -3.4117   -1.9138    0.0000 O   0  0  0  0  0  0  0  0  0  0  0  0
   -4.6287    0.3817    0.0000 O   0  0  0  0  0  0  0  0  0  0  0  0
  2  1  1  1
  2  3  1  0
  3  4  1  0
  4  5  2  0
  5  6  1  0
  6  7  2  0
  7  8  1  0
  8  9  2  0
  9 10  1  0
 10 11  1  0
  2 12  1  0
 12 13  2  0
 12 14  1  0
  9  4  1  0
M  END
>  <rName>  (2284) 
Ala_pyrid3yl_2OMe

>  <PQ_SYMBOL>  (2284) 
Ala_pyrid3yl_2OMe

>  <FULL_NAME>  (2284) 
(S)-2-amino-3-(2-methoxypyridin-3-yl)propanoic acid

>  <IUPAC_CONDENSED>  (2284) 
Ala(pyrid-3-yl(2-OMe))

>  <IUPAC>  (2284) 
(2S)-2-amino-3-(2-methoxypyridin-3-yl)propanoic acid

>  <TYPE>  (2284) 
Backbone

>  <CLASS>  (2284) 
alpha

>  <ANALOG>  (2284) 
Phe

>  <MOL_WT>  (2284) 
196.20599999999996

>  <LOGP>  (2284) 
0.04460000000000014

>  <TPSA>  (2284) 
85.44000000000001

>  <POPULARITY>  (2284) 
3.1

>  <PROTECTED>  (2284) 
TRUE

>  <SMILES>  (2284) 
N[C@@H](Cc1(cccnc1OC))C(=O)O

>  <INCHIKEY>  (2284) 
ULITZCFOLFYDQG-ZETCQYMHSA-N

$$$$
Phe_2CO2H_4OMe
     RDKit          2D

 17 17  0  0  0  0  0  0  0  0999 V2000
   -2.8817    1.7117    0.0000 N   0  0  0  0  0  0  0  0  0  0  0  0
   -3.1394    0.2340    0.0000 C   0  0  0  0  0  0  0  0  0  0  0  0
   -1.9886   -0.7280    0.0000 C   0  0  0  0  0  0  0  0  0  0  0  0
   -0.5800   -0.2123    0.0000 C   0  0  0  0  0  0  0  0  0  0  0  0
   -0.3223    1.2654    0.0000 C   0  0  0  0  0  0  0  0  0  0  0  0
    1.0863    1.7810    0.0000 C   0  0  0  0  0  0  0  0  0  0  0  0
    2.2372    0.8190    0.0000 C   0  0  0  0  0  0  0  0  0  0  0  0
    3.6457    1.3347    0.0000 O   0  0  0  0  0  0  0  0  0  0  0  0
    3.9034    2.8123    0.0000 C   0  0  0  0  0  0  0  0  0  0  0  0
    1.9794   -0.6587    0.0000 C   0  0  0  0  0  0  0  0  0  0  0  0
    0.5709   -1.1744    0.0000 C   0  0  0  0  0  0  0  0  0  0  0  0
    3.1303   -1.6207    0.0000 C   0  0  0  0  0  0  0  0  0  0  0  0
    4.5389   -1.1051    0.0000 O   0  0  0  0  0  0  0  0  0  0  0  0
    2.8726   -3.0984    0.0000 O   0  0  0  0  0  0  0  0  0  0  0  0
   -4.5480   -0.2816    0.0000 C   0  0  0  0  0  0  0  0  0  0  0  0
   -4.8057   -1.7593    0.0000 O   0  0  0  0  0  0  0  0  0  0  0  0
   -5.6989    0.6804    0.0000 O   0  0  0  0  0  0  0  0  0  0  0  0
  2  1  1  1
  2  3  1  0
  3  4  1  0
  4  5  1  0
  5  6  2  0
  6  7  1  0
  7  8  1  0
  8  9  1  0
  7 10  2  0
 10 11  1  0
 10 12  1  0
 12 13  2  0
 12 14  1  0
  2 15  1  0
 15 16  2  0
 15 17  1  0
 11  4  2  0
M  END
>  <rName>  (2285) 
Phe_2CO2H_4OMe

>  <PQ_SYMBOL>  (2285) 
Phe_2CO2H_4OMe

>  <FULL_NAME>  (2285) 
(S)-5-(2-amino-2-carboxyethyl)-2-methoxybenzoic acid

>  <IUPAC_CONDENSED>  (2285) 
Phe(2-CO2H,4-OMe)

>  <IUPAC>  (2285) 
5-((2S)-2-amino-3-hydroxy-3-oxopropyl)-2-methoxybenzene-1-carboxylic acid

>  <TYPE>  (2285) 
Backbone

>  <CLASS>  (2285) 
alpha

>  <ANALOG>  (2285) 
Tyr

>  <MOL_WT>  (2285) 
239.22699999999998

>  <LOGP>  (2285) 
0.3478

>  <TPSA>  (2285) 
109.85000000000001

>  <POPULARITY>  (2285) 
5.4

>  <PROTECTED>  (2285) 
TRUE

>  <SMILES>  (2285) 
N[C@@H](Cc1(ccc(OC)c(c1)C(=O)O))C(=O)O

>  <INCHIKEY>  (2285) 
DXJCCIMDJQJHPX-QMMMGPOBSA-N

$$$$
Phe_2OBn_5CF3
     RDKit          2D

 25 26  0  0  0  0  0  0  0  0999 V2000
   -4.3985   -1.4474    0.0000 N   0  0  0  0  0  0  0  0  0  0  0  0
   -3.2152   -2.3693    0.0000 C   0  0  0  0  0  0  0  0  0  0  0  0
   -1.8252   -1.8056    0.0000 C   0  0  0  0  0  0  0  0  0  0  0  0
   -1.6184   -0.3199    0.0000 C   0  0  0  0  0  0  0  0  0  0  0  0
   -2.8016    0.6020    0.0000 C   0  0  0  0  0  0  0  0  0  0  0  0
   -2.5948    2.0877    0.0000 C   0  0  0  0  0  0  0  0  0  0  0  0
   -1.2048    2.6514    0.0000 C   0  0  0  0  0  0  0  0  0  0  0  0
   -0.0216    1.7295    0.0000 C   0  0  0  0  0  0  0  0  0  0  0  0
   -0.2284    0.2438    0.0000 C   0  0  0  0  0  0  0  0  0  0  0  0
    0.9549   -0.6781    0.0000 C   0  0  0  0  0  0  0  0  0  0  0  0
    2.3449   -0.1144    0.0000 O   0  0  0  0  0  0  0  0  0  0  0  0
    3.5281   -1.0363    0.0000 C   0  0  0  0  0  0  0  0  0  0  0  0
    4.9182   -0.4726    0.0000 C   0  0  0  0  0  0  0  0  0  0  0  0
    6.1014   -1.3945    0.0000 C   0  0  0  0  0  0  0  0  0  0  0  0
    7.4914   -0.8308    0.0000 C   0  0  0  0  0  0  0  0  0  0  0  0
    7.6982    0.6549    0.0000 C   0  0  0  0  0  0  0  0  0  0  0  0
    6.5150    1.5768    0.0000 C   0  0  0  0  0  0  0  0  0  0  0  0
    5.1250    1.0131    0.0000 C   0  0  0  0  0  0  0  0  0  0  0  0
   -3.7781    3.0096    0.0000 C   0  0  0  0  0  0  0  0  0  0  0  0
   -4.9613    3.9316    0.0000 F   0  0  0  0  0  0  0  0  0  0  0  0
   -2.8561    4.1928    0.0000 F   0  0  0  0  0  0  0  0  0  0  0  0
   -4.7000    1.8264    0.0000 F   0  0  0  0  0  0  0  0  0  0  0  0
   -3.4220   -3.8550    0.0000 C   0  0  0  0  0  0  0  0  0  0  0  0
   -2.2388   -4.7770    0.0000 O   0  0  0  0  0  0  0  0  0  0  0  0
   -4.8121   -4.4188    0.0000 O   0  0  0  0  0  0  0  0  0  0  0  0
  2  1  1  1
  2  3  1  0
  3  4  1  0
  4  5  1  0
  5  6  2  0
  6  7  1  0
  7  8  2  0
  8  9  1  0
  9 10  1  0
 10 11  1  0
 11 12  1  0
 12 13  1  0
 13 14  2  0
 14 15  1  0
 15 16  2  0
 16 17  1  0
 17 18  2  0
  6 19  1  0
 19 20  1  0
 19 21  1  0
 19 22  1  0
  2 23  1  0
 23 24  2  0
 23 25  1  0
  9  4  2  0
 18 13  1  0
M  END
>  <rName>  (2286) 
Phe_2OBn_5CF3

>  <PQ_SYMBOL>  (2286) 
Phe_2OBn_5CF3

>  <FULL_NAME>  (2286) 
(S)-2-amino-3-(2-((benzyloxy)methyl)-5-(trifluoromethyl)phenyl)propanoic acid

>  <IUPAC_CONDENSED>  (2286) 
Phe(2-OBn,5-CF3)

>  <IUPAC>  (2286) 
(2S)-2-amino-3-(2-(benzyloxymethyl)-5-(trifluoromethyl)phenyl)propanoic acid

>  <TYPE>  (2286) 
Backbone

>  <CLASS>  (2286) 
alpha

>  <ANALOG>  (2286) 
Phe

>  <MOL_WT>  (2286) 
353.34

>  <LOGP>  (2286) 
3.3766000000000016

>  <TPSA>  (2286) 
72.55

>  <POPULARITY>  (2286) 
2.2

>  <PROTECTED>  (2286) 
TRUE

>  <SMILES>  (2286) 
N[C@@H](Cc1(cc(ccc1COCc2(ccccc2))C(F)(F)F))C(=O)O

>  <INCHIKEY>  (2286) 
DAIQAINVAGFNEB-INIZCTEOSA-N

$$$$
3Pal_5CO2H_6OMe
     RDKit          2D

 17 17  0  0  0  0  0  0  0  0999 V2000
   -2.8817    1.7117    0.0000 N   0  0  0  0  0  0  0  0  0  0  0  0
   -3.1394    0.2340    0.0000 C   0  0  0  0  0  0  0  0  0  0  0  0
   -1.9886   -0.7280    0.0000 C   0  0  0  0  0  0  0  0  0  0  0  0
   -0.5800   -0.2123    0.0000 C   0  0  0  0  0  0  0  0  0  0  0  0
   -0.3223    1.2654    0.0000 C   0  0  0  0  0  0  0  0  0  0  0  0
    1.0863    1.7810    0.0000 N   0  0  0  0  0  0  0  0  0  0  0  0
    2.2372    0.8190    0.0000 C   0  0  0  0  0  0  0  0  0  0  0  0
    3.6457    1.3347    0.0000 O   0  0  0  0  0  0  0  0  0  0  0  0
    3.9034    2.8123    0.0000 C   0  0  0  0  0  0  0  0  0  0  0  0
    1.9794   -0.6587    0.0000 C   0  0  0  0  0  0  0  0  0  0  0  0
    0.5709   -1.1744    0.0000 C   0  0  0  0  0  0  0  0  0  0  0  0
    3.1303   -1.6207    0.0000 C   0  0  0  0  0  0  0  0  0  0  0  0
    4.5389   -1.1051    0.0000 O   0  0  0  0  0  0  0  0  0  0  0  0
    2.8726   -3.0984    0.0000 O   0  0  0  0  0  0  0  0  0  0  0  0
   -4.5480   -0.2816    0.0000 C   0  0  0  0  0  0  0  0  0  0  0  0
   -4.8057   -1.7593    0.0000 O   0  0  0  0  0  0  0  0  0  0  0  0
   -5.6989    0.6804    0.0000 O   0  0  0  0  0  0  0  0  0  0  0  0
  2  1  1  1
  2  3  1  0
  3  4  1  0
  4  5  1  0
  5  6  2  0
  6  7  1  0
  7  8  1  0
  8  9  1  0
  7 10  2  0
 10 11  1  0
 10 12  1  0
 12 13  2  0
 12 14  1  0
  2 15  1  0
 15 16  2  0
 15 17  1  0
 11  4  2  0
M  END
>  <rName>  (2287) 
3Pal_5CO2H_6OMe

>  <PQ_SYMBOL>  (2287) 
3Pal_5CO2H_6OMe

>  <FULL_NAME>  (2287) 
(S)-5-(2-amino-2-carboxyethyl)-2-methoxynicotinic acid

>  <IUPAC_CONDENSED>  (2287) 
3Pal(5-CO2H,6-OMe)

>  <IUPAC>  (2287) 
5-((2S)-2-amino-3-hydroxy-3-oxopropyl)-2-methoxypyridine-3-carboxylic acid

>  <TYPE>  (2287) 
Backbone

>  <CLASS>  (2287) 
alpha

>  <ANALOG>  (2287) 
Phe

>  <MOL_WT>  (2287) 
240.21499999999997

>  <LOGP>  (2287) 
-0.25720000000000015

>  <TPSA>  (2287) 
122.74000000000002

>  <POPULARITY>  (2287) 
2.2

>  <PROTECTED>  (2287) 
TRUE

>  <SMILES>  (2287) 
N[C@@H](Cc1(cnc(OC)c(c1)C(=O)O))C(=O)O

>  <INCHIKEY>  (2287) 
RDKPFECJKRYIMO-ZETCQYMHSA-N

$$$$
Ala_pyrid4yl_2Cl
     RDKit          2D

 13 13  0  0  0  0  0  0  0  0999 V2000
   -1.7680    1.6690    0.0000 N   0  0  0  0  0  0  0  0  0  0  0  0
   -1.9932    0.1860    0.0000 C   0  0  0  0  0  0  0  0  0  0  0  0
   -0.8215   -0.7506    0.0000 C   0  0  0  0  0  0  0  0  0  0  0  0
    0.5754   -0.2041    0.0000 C   0  0  0  0  0  0  0  0  0  0  0  0
    0.8006    1.2789    0.0000 C   0  0  0  0  0  0  0  0  0  0  0  0
    2.1976    1.8254    0.0000 C   0  0  0  0  0  0  0  0  0  0  0  0
    3.3693    0.8888    0.0000 N   0  0  0  0  0  0  0  0  0  0  0  0
    3.1441   -0.5942    0.0000 C   0  0  0  0  0  0  0  0  0  0  0  0
    4.3158   -1.5307    0.0000 Cl  0  0  0  0  0  0  0  0  0  0  0  0
    1.7472   -1.1406    0.0000 C   0  0  0  0  0  0  0  0  0  0  0  0
   -3.3901   -0.3605    0.0000 C   0  0  0  0  0  0  0  0  0  0  0  0
   -3.6153   -1.8435    0.0000 O   0  0  0  0  0  0  0  0  0  0  0  0
   -4.5618    0.5760    0.0000 O   0  0  0  0  0  0  0  0  0  0  0  0
  2  1  1  1
  2  3  1  0
  3  4  1  0
  4  5  1  0
  5  6  2  0
  6  7  1  0
  7  8  2  0
  8  9  1  0
  8 10  1  0
  2 11  1  0
 11 12  2  0
 11 13  1  0
 10  4  2  0
M  END
>  <rName>  (2288) 
Ala_pyrid4yl_2Cl

>  <PQ_SYMBOL>  (2288) 
Ala_pyrid4yl_2Cl

>  <FULL_NAME>  (2288) 
(S)-2-amino-3-(2-chloropyridin-4-yl)propanoic acid

>  <IUPAC_CONDENSED>  (2288) 
Ala(pyrid-4-yl(2-Cl))

>  <IUPAC>  (2288) 
(2S)-2-amino-3-(2-chloropyridin-4-yl)propanoic acid

>  <TYPE>  (2288) 
Backbone

>  <CLASS>  (2288) 
alpha

>  <ANALOG>  (2288) 
Phe

>  <MOL_WT>  (2288) 
200.625

>  <LOGP>  (2288) 
0.6894

>  <TPSA>  (2288) 
76.21

>  <POPULARITY>  (2288) 
4

>  <PROTECTED>  (2288) 
TRUE

>  <SMILES>  (2288) 
N[C@@H](Cc1(ccnc(Cl)c1))C(=O)O

>  <INCHIKEY>  (2288) 
LHQLWGWKBFFKJA-LURJTMIESA-N

$$$$
Phe_4Bu
     RDKit          2D

 16 16  0  0  0  0  0  0  0  0999 V2000
   -3.0307    1.6397    0.0000 N   0  0  0  0  0  0  0  0  0  0  0  0
   -3.3793    0.1807    0.0000 C   0  0  0  0  0  0  0  0  0  0  0  0
   -2.2900   -0.8506    0.0000 C   0  0  0  0  0  0  0  0  0  0  0  0
   -0.8523   -0.4229    0.0000 C   0  0  0  0  0  0  0  0  0  0  0  0
   -0.5038    1.0360    0.0000 C   0  0  0  0  0  0  0  0  0  0  0  0
    0.9340    1.4637    0.0000 C   0  0  0  0  0  0  0  0  0  0  0  0
    2.0232    0.4324    0.0000 C   0  0  0  0  0  0  0  0  0  0  0  0
    1.6747   -1.0266    0.0000 C   0  0  0  0  0  0  0  0  0  0  0  0
    0.2369   -1.4542    0.0000 C   0  0  0  0  0  0  0  0  0  0  0  0
    3.4609    0.8600    0.0000 C   0  0  0  0  0  0  0  0  0  0  0  0
    4.5502   -0.1713    0.0000 C   0  0  0  0  0  0  0  0  0  0  0  0
    5.9879    0.2564    0.0000 C   0  0  0  0  0  0  0  0  0  0  0  0
    7.0771   -0.7749    0.0000 C   0  0  0  0  0  0  0  0  0  0  0  0
   -4.8170   -0.2469    0.0000 C   0  0  0  0  0  0  0  0  0  0  0  0
   -5.1655   -1.7059    0.0000 O   0  0  0  0  0  0  0  0  0  0  0  0
   -5.9062    0.7844    0.0000 O   0  0  0  0  0  0  0  0  0  0  0  0
  2  1  1  1
  2  3  1  0
  3  4  1  0
  4  5  1  0
  5  6  2  0
  6  7  1  0
  7  8  2  0
  8  9  1  0
  7 10  1  0
 10 11  1  0
 11 12  1  0
 12 13  1  0
  2 14  1  0
 14 15  2  0
 14 16  1  0
  9  4  2  0
M  END
>  <rName>  (2289) 
Phe_4Bu

>  <PQ_SYMBOL>  (2289) 
Phe_4Bu

>  <FULL_NAME>  (2289) 
(S)-2-amino-3-(4-butylphenyl)propanoic acid

>  <IUPAC_CONDENSED>  (2289) 
Phe(4-Bu)

>  <IUPAC>  (2289) 
(2S)-2-amino-3-(4-butylphenyl)propanoic acid

>  <TYPE>  (2289) 
Backbone

>  <CLASS>  (2289) 
alpha

>  <ANALOG>  (2289) 
Phe

>  <MOL_WT>  (2289) 
221.29999999999993

>  <LOGP>  (2289) 
1.9836000000000003

>  <TPSA>  (2289) 
63.32000000000001

>  <POPULARITY>  (2289) 
5.5

>  <PROTECTED>  (2289) 
TRUE

>  <SMILES>  (2289) 
N[C@@H](Cc1(ccc(cc1)CCCC))C(=O)O

>  <INCHIKEY>  (2289) 
SJDNDSCDCUTXRU-LBPRGKRZSA-N

$$$$
Phe_2F_4NH2_5CO2H
     RDKit          2D

 17 17  0  0  0  0  0  0  0  0999 V2000
    1.7999   -1.7667    0.0000 N   0  0  0  0  0  0  0  0  0  0  0  0
    2.5565   -0.4715    0.0000 C   0  0  0  0  0  0  0  0  0  0  0  0
    1.8131    0.8314    0.0000 C   0  0  0  0  0  0  0  0  0  0  0  0
    0.3131    0.8390    0.0000 C   0  0  0  0  0  0  0  0  0  0  0  0
   -0.4435   -0.4562    0.0000 C   0  0  0  0  0  0  0  0  0  0  0  0
   -1.9435   -0.4486    0.0000 C   0  0  0  0  0  0  0  0  0  0  0  0
   -2.7001   -1.7438    0.0000 C   0  0  0  0  0  0  0  0  0  0  0  0
   -1.9567   -3.0467    0.0000 O   0  0  0  0  0  0  0  0  0  0  0  0
   -4.2000   -1.7362    0.0000 O   0  0  0  0  0  0  0  0  0  0  0  0
   -2.6869    0.8542    0.0000 C   0  0  0  0  0  0  0  0  0  0  0  0
   -4.1869    0.8618    0.0000 N   0  0  0  0  0  0  0  0  0  0  0  0
   -1.9303    2.1494    0.0000 C   0  0  0  0  0  0  0  0  0  0  0  0
   -0.4303    2.1418    0.0000 C   0  0  0  0  0  0  0  0  0  0  0  0
    0.3263    3.4370    0.0000 F   0  0  0  0  0  0  0  0  0  0  0  0
    4.0564   -0.4791    0.0000 C   0  0  0  0  0  0  0  0  0  0  0  0
    4.8130    0.8161    0.0000 O   0  0  0  0  0  0  0  0  0  0  0  0
    4.7998   -1.7819    0.0000 O   0  0  0  0  0  0  0  0  0  0  0  0
  2  1  1  1
  2  3  1  0
  3  4  1  0
  4  5  1  0
  5  6  2  0
  6  7  1  0
  7  8  2  0
  7  9  1  0
  6 10  1  0
 10 11  1  0
 10 12  2  0
 12 13  1  0
 13 14  1  0
  2 15  1  0
 15 16  2  0
 15 17  1  0
 13  4  2  0
M  END
>  <rName>  (2290) 
Phe_2F_4NH2_5CO2H

>  <PQ_SYMBOL>  (2290) 
Phe_2F_4NH2_5CO2H

>  <FULL_NAME>  (2290) 
(S)-2-amino-5-(2-amino-2-carboxyethyl)-4-fluorobenzoic acid

>  <IUPAC_CONDENSED>  (2290) 
Phe(2-F,4-NH2,5-CO2H)

>  <IUPAC>  (2290) 
2-amino-5-((2S)-2-amino-3-hydroxy-3-oxopropyl)-4-fluorobenzene-1-carboxylic acid

>  <TYPE>  (2290) 
Backbone

>  <CLASS>  (2290) 
alpha

>  <ANALOG>  (2290) 
Phe

>  <MOL_WT>  (2290) 
242.20599999999996

>  <LOGP>  (2290) 
0.060499999999999554

>  <TPSA>  (2290) 
126.64

>  <POPULARITY>  (2290) 
2.2

>  <PROTECTED>  (2290) 
TRUE

>  <SMILES>  (2290) 
N[C@@H](Cc1(cc(C(=O)O)c(N)cc1F))C(=O)O

>  <INCHIKEY>  (2290) 
LPRGXYXPLDERHM-QMMMGPOBSA-N

$$$$
3Pal_2F_6NH2
     RDKit          2D

 14 14  0  0  0  0  0  0  0  0999 V2000
   -1.7174    1.8436    0.0000 N   0  0  0  0  0  0  0  0  0  0  0  0
   -2.1036    0.3942    0.0000 C   0  0  0  0  0  0  0  0  0  0  0  0
   -1.0414   -0.6650    0.0000 C   0  0  0  0  0  0  0  0  0  0  0  0
    0.4069   -0.2747    0.0000 C   0  0  0  0  0  0  0  0  0  0  0  0
    0.7931    1.1747    0.0000 C   0  0  0  0  0  0  0  0  0  0  0  0
    2.2415    1.5649    0.0000 C   0  0  0  0  0  0  0  0  0  0  0  0
    3.3036    0.5057    0.0000 C   0  0  0  0  0  0  0  0  0  0  0  0
    4.7520    0.8960    0.0000 N   0  0  0  0  0  0  0  0  0  0  0  0
    2.9174   -0.9437    0.0000 N   0  0  0  0  0  0  0  0  0  0  0  0
    1.4691   -1.3339    0.0000 C   0  0  0  0  0  0  0  0  0  0  0  0
    1.0829   -2.7834    0.0000 F   0  0  0  0  0  0  0  0  0  0  0  0
   -3.5519    0.0039    0.0000 C   0  0  0  0  0  0  0  0  0  0  0  0
   -3.9381   -1.4455    0.0000 O   0  0  0  0  0  0  0  0  0  0  0  0
   -4.6140    1.0631    0.0000 O   0  0  0  0  0  0  0  0  0  0  0  0
  2  1  1  1
  2  3  1  0
  3  4  1  0
  4  5  1  0
  5  6  2  0
  6  7  1  0
  7  8  1  0
  7  9  2  0
  9 10  1  0
 10 11  1  0
  2 12  1  0
 12 13  2  0
 12 14  1  0
 10  4  2  0
M  END
>  <rName>  (2291) 
3Pal_2F_6NH2

>  <PQ_SYMBOL>  (2291) 
3Pal_2F_6NH2

>  <FULL_NAME>  (2291) 
(S)-2-amino-3-(6-amino-2-fluoropyridin-3-yl)propanoic acid

>  <IUPAC_CONDENSED>  (2291) 
3Pal(2-F,6-NH2)

>  <IUPAC>  (2291) 
(2S)-2-amino-3-(6-amino-2-fluoropyridin-3-yl)propanoic acid

>  <TYPE>  (2291) 
Backbone

>  <CLASS>  (2291) 
alpha

>  <ANALOG>  (2291) 
Phe

>  <MOL_WT>  (2291) 
199.18499999999997

>  <LOGP>  (2291) 
-0.24270000000000042

>  <TPSA>  (2291) 
102.23

>  <POPULARITY>  (2291) 
2.2

>  <PROTECTED>  (2291) 
TRUE

>  <SMILES>  (2291) 
N[C@@H](Cc1(ccc(N)nc1F))C(=O)O

>  <INCHIKEY>  (2291) 
VUSZDSKOKAZHDI-YFKPBYRVSA-N

$$$$
Phe_3Me_4CN
     RDKit          2D

 15 15  0  0  0  0  0  0  0  0999 V2000
   -2.3016    1.7358    0.0000 N   0  0  0  0  0  0  0  0  0  0  0  0
   -2.7065    0.2914    0.0000 C   0  0  0  0  0  0  0  0  0  0  0  0
   -1.6581   -0.7814    0.0000 C   0  0  0  0  0  0  0  0  0  0  0  0
   -0.2049   -0.4099    0.0000 C   0  0  0  0  0  0  0  0  0  0  0  0
    0.2001    1.0344    0.0000 C   0  0  0  0  0  0  0  0  0  0  0  0
    1.6533    1.4059    0.0000 C   0  0  0  0  0  0  0  0  0  0  0  0
    2.7017    0.3330    0.0000 C   0  0  0  0  0  0  0  0  0  0  0  0
    4.1550    0.7045    0.0000 C   0  0  0  0  0  0  0  0  0  0  0  0
    5.6082    1.0760    0.0000 N   0  0  0  0  0  0  0  0  0  0  0  0
    2.2968   -1.1113    0.0000 C   0  0  0  0  0  0  0  0  0  0  0  0
    3.3451   -2.1841    0.0000 C   0  0  0  0  0  0  0  0  0  0  0  0
    0.8435   -1.4827    0.0000 C   0  0  0  0  0  0  0  0  0  0  0  0
   -4.1598   -0.0800    0.0000 C   0  0  0  0  0  0  0  0  0  0  0  0
   -4.5647   -1.5243    0.0000 O   0  0  0  0  0  0  0  0  0  0  0  0
   -5.2081    0.9928    0.0000 O   0  0  0  0  0  0  0  0  0  0  0  0
  2  1  1  1
  2  3  1  0
  3  4  1  0
  4  5  1  0
  5  6  2  0
  6  7  1  0
  7  8  1  0
  8  9  3  0
  7 10  2  0
 10 11  1  0
 10 12  1  0
  2 13  1  0
 13 14  2  0
 13 15  1  0
 12  4  2  0
M  END
>  <rName>  (2292) 
Phe_3Me_4CN

>  <PQ_SYMBOL>  (2292) 
Phe_3Me_4CN

>  <FULL_NAME>  (2292) 
(S)-2-amino-3-(4-cyano-3-methylphenyl)propanoic acid

>  <IUPAC_CONDENSED>  (2292) 
Phe(3-Me,4-CN)

>  <IUPAC>  (2292) 
(2S)-2-amino-3-(3-methyl-4-(nitrilomethyl)phenyl)propanoic acid

>  <TYPE>  (2292) 
Backbone

>  <CLASS>  (2292) 
alpha

>  <ANALOG>  (2292) 
Phe

>  <MOL_WT>  (2292) 
204.22899999999998

>  <LOGP>  (2292) 
0.8211000000000002

>  <TPSA>  (2292) 
87.11

>  <POPULARITY>  (2292) 
2.7

>  <PROTECTED>  (2292) 
TRUE

>  <SMILES>  (2292) 
N[C@@H](Cc1(ccc(C#N)c(C)c1))C(=O)O

>  <INCHIKEY>  (2292) 
IGHSIWAAAFQOMM-JTQLQIEISA-N

$$$$
Dap_Me_Ph
     RDKit          2D

 14 14  0  0  0  0  0  0  0  0999 V2000
    2.6678   -1.7574    0.0000 N   0  0  0  0  0  0  0  0  0  0  0  0
    2.4057   -0.2804    0.0000 C   0  0  0  0  0  0  0  0  0  0  0  0
    0.9956    0.2311    0.0000 C   0  0  0  0  0  0  0  0  0  0  0  0
   -0.1524   -0.7344    0.0000 N   0  0  0  0  0  0  0  0  0  0  0  0
    0.1097   -2.2113    0.0000 C   0  0  0  0  0  0  0  0  0  0  0  0
   -1.5625   -0.2228    0.0000 C   0  0  0  0  0  0  0  0  0  0  0  0
   -2.7105   -1.1883    0.0000 C   0  0  0  0  0  0  0  0  0  0  0  0
   -4.1206   -0.6768    0.0000 C   0  0  0  0  0  0  0  0  0  0  0  0
   -4.3827    0.8002    0.0000 C   0  0  0  0  0  0  0  0  0  0  0  0
   -3.2347    1.7656    0.0000 C   0  0  0  0  0  0  0  0  0  0  0  0
   -1.8246    1.2541    0.0000 C   0  0  0  0  0  0  0  0  0  0  0  0
    3.5537    0.6850    0.0000 C   0  0  0  0  0  0  0  0  0  0  0  0
    3.2917    2.1619    0.0000 O   0  0  0  0  0  0  0  0  0  0  0  0
    4.9638    0.1735    0.0000 O   0  0  0  0  0  0  0  0  0  0  0  0
  2  1  1  1
  2  3  1  0
  3  4  1  0
  4  5  1  0
  4  6  1  0
  6  7  2  0
  7  8  1  0
  8  9  2  0
  9 10  1  0
 10 11  2  0
  2 12  1  0
 12 13  2  0
 12 14  1  0
 11  6  1  0
M  END
>  <rName>  (2293) 
Dap_Me_Ph

>  <PQ_SYMBOL>  (2293) 
Dap_Me_Ph

>  <FULL_NAME>  (2293) 
(S)-2-amino-3-(methyl(phenyl)amino)propanoic acid

>  <IUPAC_CONDENSED>  (2293) 
Dap(Me,Ph)

>  <IUPAC>  (2293) 
(2S)-2-amino-3-((methyl)(phenyl)amino)propanoic acid

>  <TYPE>  (2293) 
Backbone

>  <CLASS>  (2293) 
alpha

>  <ANALOG>  (2293) 
X

>  <MOL_WT>  (2293) 
194.23399999999998

>  <LOGP>  (2293) 
0.5346999999999997

>  <TPSA>  (2293) 
66.56

>  <POPULARITY>  (2293) 
7.2

>  <PROTECTED>  (2293) 
TRUE

>  <SMILES>  (2293) 
N[C@@H](CN(C)c1(ccccc1))C(=O)O

>  <INCHIKEY>  (2293) 
ZUWLVTBZWZLXHO-VIFPVBQESA-N

$$$$
Phe_3CONHMe
     RDKit          2D

 16 16  0  0  0  0  0  0  0  0999 V2000
   -3.1324    1.4901    0.0000 N   0  0  0  0  0  0  0  0  0  0  0  0
   -3.0132   -0.0051    0.0000 C   0  0  0  0  0  0  0  0  0  0  0  0
   -1.6586   -0.6495    0.0000 C   0  0  0  0  0  0  0  0  0  0  0  0
   -0.4233    0.2014    0.0000 C   0  0  0  0  0  0  0  0  0  0  0  0
   -0.5425    1.6966    0.0000 C   0  0  0  0  0  0  0  0  0  0  0  0
    0.6928    2.5475    0.0000 C   0  0  0  0  0  0  0  0  0  0  0  0
    2.0473    1.9031    0.0000 C   0  0  0  0  0  0  0  0  0  0  0  0
    2.1666    0.4079    0.0000 C   0  0  0  0  0  0  0  0  0  0  0  0
    0.9312   -0.4430    0.0000 C   0  0  0  0  0  0  0  0  0  0  0  0
    3.5211   -0.2365    0.0000 C   0  0  0  0  0  0  0  0  0  0  0  0
    4.7564    0.6144    0.0000 O   0  0  0  0  0  0  0  0  0  0  0  0
    3.6403   -1.7318    0.0000 N   0  0  0  0  0  0  0  0  0  0  0  0
    4.9949   -2.3761    0.0000 C   0  0  0  0  0  0  0  0  0  0  0  0
   -4.2485   -0.8560    0.0000 C   0  0  0  0  0  0  0  0  0  0  0  0
   -4.1292   -2.3513    0.0000 O   0  0  0  0  0  0  0  0  0  0  0  0
   -5.6030   -0.2116    0.0000 O   0  0  0  0  0  0  0  0  0  0  0  0
  2  1  1  1
  2  3  1  0
  3  4  1  0
  4  5  1  0
  5  6  2  0
  6  7  1  0
  7  8  2  0
  8  9  1  0
  8 10  1  0
 10 11  2  0
 10 12  1  0
 12 13  1  0
  2 14  1  0
 14 15  2  0
 14 16  1  0
  9  4  2  0
M  END
>  <rName>  (2294) 
Phe_3CONHMe

>  <PQ_SYMBOL>  (2294) 
Phe_3CONHMe

>  <FULL_NAME>  (2294) 
(S)-2-amino-3-(3-(methylcarbamoyl)phenyl)propanoic acid

>  <IUPAC_CONDENSED>  (2294) 
Phe(3-CONHMe)

>  <IUPAC>  (2294) 
(2S)-2-amino-3-(3-(methylcarbamoyl)phenyl)propanoic acid

>  <TYPE>  (2294) 
Backbone

>  <CLASS>  (2294) 
alpha

>  <ANALOG>  (2294) 
Phe

>  <MOL_WT>  (2294) 
222.24399999999997

>  <LOGP>  (2294) 
0.0005999999999998784

>  <TPSA>  (2294) 
92.42

>  <POPULARITY>  (2294) 
4.6

>  <PROTECTED>  (2294) 
TRUE

>  <SMILES>  (2294) 
N[C@@H](Cc1(cccc(c1)C(=O)NC))C(=O)O

>  <INCHIKEY>  (2294) 
MOUPFWHCJUMJAN-VIFPVBQESA-N

$$$$
Ala_pyrazol4yl_1Me_5CO2H
     RDKit          2D

 15 15  0  0  0  0  0  0  0  0999 V2000
    2.3202    1.8817    0.0000 N   0  0  0  0  0  0  0  0  0  0  0  0
    2.2904    0.3820    0.0000 C   0  0  0  0  0  0  0  0  0  0  0  0
    0.9767   -0.3421    0.0000 C   0  0  0  0  0  0  0  0  0  0  0  0
   -0.3072    0.4336    0.0000 C   0  0  0  0  0  0  0  0  0  0  0  0
   -0.4343    1.9282    0.0000 C   0  0  0  0  0  0  0  0  0  0  0  0
   -1.8950    2.2692    0.0000 N   0  0  0  0  0  0  0  0  0  0  0  0
   -2.6707    0.9853    0.0000 N   0  0  0  0  0  0  0  0  0  0  0  0
   -4.1653    0.8582    0.0000 C   0  0  0  0  0  0  0  0  0  0  0  0
   -1.6894   -0.1491    0.0000 C   0  0  0  0  0  0  0  0  0  0  0  0
   -2.0303   -1.6099    0.0000 C   0  0  0  0  0  0  0  0  0  0  0  0
   -3.4659   -2.0449    0.0000 O   0  0  0  0  0  0  0  0  0  0  0  0
   -0.9358   -2.6355    0.0000 O   0  0  0  0  0  0  0  0  0  0  0  0
    3.5742   -0.3937    0.0000 C   0  0  0  0  0  0  0  0  0  0  0  0
    3.5444   -1.8934    0.0000 O   0  0  0  0  0  0  0  0  0  0  0  0
    4.8879    0.3303    0.0000 O   0  0  0  0  0  0  0  0  0  0  0  0
  2  1  1  6
  2  3  1  0
  3  4  1  0
  4  5  1  0
  5  6  2  0
  6  7  1  0
  7  8  1  0
  7  9  1  0
  9 10  1  0
 10 11  2  0
 10 12  1  0
  2 13  1  0
 13 14  2  0
 13 15  1  0
  9  4  2  0
M  END
>  <rName>  (2295) 
Ala_pyrazol4yl_1Me_5CO2H

>  <PQ_SYMBOL>  (2295) 
Ala_pyrazol4yl_1Me_5CO2H

>  <FULL_NAME>  (2295) 
(S)-4-(2-amino-2-carboxyethyl)-1-methyl-1H-pyrazole-5-carboxylic acid

>  <IUPAC_CONDENSED>  (2295) 
Ala(pyrazol-4-yl(1-Me,5-CO2H))

>  <IUPAC>  (2295) 
4-((2S)-2-amino-3-hydroxy-3-oxopropyl)-1-methyl-1H-pyrazole-5-carboxylic acid

>  <TYPE>  (2295) 
Backbone

>  <CLASS>  (2295) 
alpha

>  <ANALOG>  (2295) 
Phe

>  <MOL_WT>  (2295) 
213.19299999999998

>  <LOGP>  (2295) 
-0.9272999999999998

>  <TPSA>  (2295) 
118.44000000000001

>  <POPULARITY>  (2295) 
2.2

>  <PROTECTED>  (2295) 
TRUE

>  <SMILES>  (2295) 
N[C@@H](Cc1(cnn(C)c1C(=O)O))C(=O)O

>  <INCHIKEY>  (2295) 
SICBZKXWCUKBDH-YFKPBYRVSA-N

$$$$
Phe_3Me_4NO2
     RDKit          2D

 16 16  0  0  0  0  0  0  0  0999 V2000
   -2.5421    1.7204    0.0000 N   0  0  0  0  0  0  0  0  0  0  0  0
   -2.9632    0.2807    0.0000 C   0  0  0  0  0  0  0  0  0  0  0  0
   -1.9270   -0.8038    0.0000 C   0  0  0  0  0  0  0  0  0  0  0  0
   -0.4696   -0.4487    0.0000 C   0  0  0  0  0  0  0  0  0  0  0  0
   -0.0485    0.9910    0.0000 C   0  0  0  0  0  0  0  0  0  0  0  0
    1.4089    1.3461    0.0000 C   0  0  0  0  0  0  0  0  0  0  0  0
    2.4451    0.2616    0.0000 C   0  0  0  0  0  0  0  0  0  0  0  0
    2.0240   -1.1781    0.0000 C   0  0  0  0  0  0  0  0  0  0  0  0
    3.0602   -2.2626    0.0000 C   0  0  0  0  0  0  0  0  0  0  0  0
    0.5666   -1.5332    0.0000 C   0  0  0  0  0  0  0  0  0  0  0  0
    3.9024    0.6167    0.0000 N   0  0  0  0  0  0  0  0  0  0  0  0
    4.9387   -0.4678    0.0000 O   0  0  0  0  0  0  0  0  0  0  0  0
    4.3236    2.0564    0.0000 O   0  0  0  0  0  0  0  0  0  0  0  0
   -4.4206   -0.0744    0.0000 C   0  0  0  0  0  0  0  0  0  0  0  0
   -4.8417   -1.5141    0.0000 O   0  0  0  0  0  0  0  0  0  0  0  0
   -5.4568    1.0101    0.0000 O   0  0  0  0  0  0  0  0  0  0  0  0
  2  1  1  1
  2  3  1  0
  3  4  1  0
  4  5  1  0
  5  6  2  0
  6  7  1  0
  7  8  2  0
  8  9  1  0
  8 10  1  0
  7 11  1  0
 11 12  2  0
 11 13  1  0
  2 14  1  0
 14 15  2  0
 14 16  1  0
 10  4  2  0
M  CHG  2  11   1  13  -1
M  END
>  <rName>  (2296) 
Phe_3Me_4NO2

>  <PQ_SYMBOL>  (2296) 
Phe_3Me_4NO2

>  <FULL_NAME>  (2296) 
(S)-2-amino-3-(3-methyl-4-nitrophenyl)propanoic acid

>  <IUPAC_CONDENSED>  (2296) 
Phe(3-Me,4-NO2)

>  <IUPAC>  (2296) 
(2S)-2-amino-3-(3-methyl-4-nitrophenyl)propanoic acid

>  <TYPE>  (2296) 
Backbone

>  <CLASS>  (2296) 
alpha

>  <ANALOG>  (2296) 
Phe

>  <MOL_WT>  (2296) 
224.21599999999998

>  <LOGP>  (2296) 
0.85762

>  <TPSA>  (2296) 
106.46

>  <POPULARITY>  (2296) 
2.8

>  <PROTECTED>  (2296) 
TRUE

>  <SMILES>  (2296) 
N[C@@H](Cc1(ccc(c(C)c1)[N+](=O)[O-]))C(=O)O

>  <INCHIKEY>  (2296) 
VXGAUVMFRFCFQE-QMMMGPOBSA-N

$$$$
Phe_2Et
     RDKit          2D

 14 14  0  0  0  0  0  0  0  0999 V2000
   -1.5263    2.0132    0.0000 N   0  0  0  0  0  0  0  0  0  0  0  0
   -1.7894    0.5365    0.0000 C   0  0  0  0  0  0  0  0  0  0  0  0
   -0.6421   -0.4297    0.0000 C   0  0  0  0  0  0  0  0  0  0  0  0
    0.7684    0.0807    0.0000 C   0  0  0  0  0  0  0  0  0  0  0  0
    1.0315    1.5575    0.0000 C   0  0  0  0  0  0  0  0  0  0  0  0
    2.4420    2.0680    0.0000 C   0  0  0  0  0  0  0  0  0  0  0  0
    3.5893    1.1017    0.0000 C   0  0  0  0  0  0  0  0  0  0  0  0
    3.3262   -0.3750    0.0000 C   0  0  0  0  0  0  0  0  0  0  0  0
    1.9157   -0.8855    0.0000 C   0  0  0  0  0  0  0  0  0  0  0  0
    1.6526   -2.3622    0.0000 C   0  0  0  0  0  0  0  0  0  0  0  0
    0.2421   -2.8727    0.0000 C   0  0  0  0  0  0  0  0  0  0  0  0
   -3.1999    0.0260    0.0000 C   0  0  0  0  0  0  0  0  0  0  0  0
   -3.4630   -1.4507    0.0000 O   0  0  0  0  0  0  0  0  0  0  0  0
   -4.3472    0.9923    0.0000 O   0  0  0  0  0  0  0  0  0  0  0  0
  2  1  1  1
  2  3  1  0
  3  4  1  0
  4  5  2  0
  5  6  1  0
  6  7  2  0
  7  8  1  0
  8  9  2  0
  9 10  1  0
 10 11  1  0
  2 12  1  0
 12 13  2  0
 12 14  1  0
  9  4  1  0
M  END
>  <rName>  (2297) 
Phe_2Et

>  <PQ_SYMBOL>  (2297) 
Phe_2Et

>  <FULL_NAME>  (2297) 
(S)-2-amino-3-(2-ethylphenyl)propanoic acid

>  <IUPAC_CONDENSED>  (2297) 
Phe(2-Et)

>  <IUPAC>  (2297) 
(2S)-2-amino-3-(2-ethylphenyl)propanoic acid

>  <TYPE>  (2297) 
Backbone

>  <CLASS>  (2297) 
alpha

>  <ANALOG>  (2297) 
Phe

>  <MOL_WT>  (2297) 
193.24599999999995

>  <LOGP>  (2297) 
1.2034000000000002

>  <TPSA>  (2297) 
63.32000000000001

>  <POPULARITY>  (2297) 
7.8

>  <PROTECTED>  (2297) 
TRUE

>  <SMILES>  (2297) 
N[C@@H](Cc1(ccccc1CC))C(=O)O

>  <INCHIKEY>  (2297) 
PQZUXTFTNLKJIM-JTQLQIEISA-N

$$$$
Phe_2CO2H_3OMe
     RDKit          2D

 17 17  0  0  0  0  0  0  0  0999 V2000
   -2.6461    1.9365    0.0000 N   0  0  0  0  0  0  0  0  0  0  0  0
   -2.6683    0.4367    0.0000 C   0  0  0  0  0  0  0  0  0  0  0  0
   -1.3805   -0.3325    0.0000 C   0  0  0  0  0  0  0  0  0  0  0  0
   -0.0705    0.3981    0.0000 C   0  0  0  0  0  0  0  0  0  0  0  0
   -0.0483    1.8980    0.0000 C   0  0  0  0  0  0  0  0  0  0  0  0
    1.2617    2.6286    0.0000 C   0  0  0  0  0  0  0  0  0  0  0  0
    2.5495    1.8595    0.0000 C   0  0  0  0  0  0  0  0  0  0  0  0
    2.5273    0.3596    0.0000 C   0  0  0  0  0  0  0  0  0  0  0  0
    3.8150   -0.4096    0.0000 O   0  0  0  0  0  0  0  0  0  0  0  0
    5.1251    0.3211    0.0000 C   0  0  0  0  0  0  0  0  0  0  0  0
    1.2173   -0.3710    0.0000 C   0  0  0  0  0  0  0  0  0  0  0  0
    1.1950   -1.8709    0.0000 C   0  0  0  0  0  0  0  0  0  0  0  0
   -0.1150   -2.6015    0.0000 O   0  0  0  0  0  0  0  0  0  0  0  0
    2.4828   -2.6400    0.0000 O   0  0  0  0  0  0  0  0  0  0  0  0
   -3.9783   -0.2940    0.0000 C   0  0  0  0  0  0  0  0  0  0  0  0
   -4.0006   -1.7938    0.0000 O   0  0  0  0  0  0  0  0  0  0  0  0
   -5.2661    0.4752    0.0000 O   0  0  0  0  0  0  0  0  0  0  0  0
  2  1  1  1
  2  3  1  0
  3  4  1  0
  4  5  1  0
  5  6  2  0
  6  7  1  0
  7  8  2  0
  8  9  1  0
  9 10  1  0
  8 11  1  0
 11 12  1  0
 12 13  2  0
 12 14  1  0
  2 15  1  0
 15 16  2  0
 15 17  1  0
 11  4  2  0
M  END
>  <rName>  (2298) 
Phe_2CO2H_3OMe

>  <PQ_SYMBOL>  (2298) 
Phe_2CO2H_3OMe

>  <FULL_NAME>  (2298) 
(S)-2-(2-amino-2-carboxyethyl)-6-methoxybenzoic acid

>  <IUPAC_CONDENSED>  (2298) 
Phe(2-CO2H,3-OMe)

>  <IUPAC>  (2298) 
2-((2S)-2-amino-3-hydroxy-3-oxopropyl)-6-methoxybenzene-1-carboxylic acid

>  <TYPE>  (2298) 
Backbone

>  <CLASS>  (2298) 
alpha

>  <ANALOG>  (2298) 
Tyr

>  <MOL_WT>  (2298) 
239.22699999999995

>  <LOGP>  (2298) 
0.3478

>  <TPSA>  (2298) 
109.85000000000001

>  <POPULARITY>  (2298) 
3

>  <PROTECTED>  (2298) 
TRUE

>  <SMILES>  (2298) 
N[C@@H](Cc1(cccc(OC)c1C(=O)O))C(=O)O

>  <INCHIKEY>  (2298) 
FSHRXFVCVVGEEW-ZETCQYMHSA-N

$$$$
Phe_2CO2H_5CF3
     RDKit          2D

 19 19  0  0  0  0  0  0  0  0999 V2000
    1.1419   -2.3773    0.0000 N   0  0  0  0  0  0  0  0  0  0  0  0
    2.1705   -1.2855    0.0000 C   0  0  0  0  0  0  0  0  0  0  0  0
    1.7392    0.1512    0.0000 C   0  0  0  0  0  0  0  0  0  0  0  0
    0.2794    0.4960    0.0000 C   0  0  0  0  0  0  0  0  0  0  0  0
   -0.7491   -0.5958    0.0000 C   0  0  0  0  0  0  0  0  0  0  0  0
   -2.2090   -0.2510    0.0000 C   0  0  0  0  0  0  0  0  0  0  0  0
   -2.6402    1.1857    0.0000 C   0  0  0  0  0  0  0  0  0  0  0  0
   -1.6117    2.2775    0.0000 C   0  0  0  0  0  0  0  0  0  0  0  0
   -0.1519    1.9327    0.0000 C   0  0  0  0  0  0  0  0  0  0  0  0
    0.8767    3.0245    0.0000 C   0  0  0  0  0  0  0  0  0  0  0  0
    2.3365    2.6797    0.0000 O   0  0  0  0  0  0  0  0  0  0  0  0
    0.4454    4.4612    0.0000 O   0  0  0  0  0  0  0  0  0  0  0  0
   -3.2375   -1.3428    0.0000 C   0  0  0  0  0  0  0  0  0  0  0  0
   -4.2661   -2.4346    0.0000 F   0  0  0  0  0  0  0  0  0  0  0  0
   -4.3293   -0.3142    0.0000 F   0  0  0  0  0  0  0  0  0  0  0  0
   -2.1457   -2.3713    0.0000 F   0  0  0  0  0  0  0  0  0  0  0  0
    3.6303   -1.6303    0.0000 C   0  0  0  0  0  0  0  0  0  0  0  0
    4.6589   -0.5385    0.0000 O   0  0  0  0  0  0  0  0  0  0  0  0
    4.0616   -3.0670    0.0000 O   0  0  0  0  0  0  0  0  0  0  0  0
  2  1  1  1
  2  3  1  0
  3  4  1  0
  4  5  1  0
  5  6  2  0
  6  7  1  0
  7  8  2  0
  8  9  1  0
  9 10  1  0
 10 11  2  0
 10 12  1  0
  6 13  1  0
 13 14  1  0
 13 15  1  0
 13 16  1  0
  2 17  1  0
 17 18  2  0
 17 19  1  0
  9  4  2  0
M  END
>  <rName>  (2299) 
Phe_2CO2H_5CF3

>  <PQ_SYMBOL>  (2299) 
Phe_2CO2H_5CF3

>  <FULL_NAME>  (2299) 
(S)-2-(2-amino-2-carboxyethyl)-4-(trifluoromethyl)benzoic acid

>  <IUPAC_CONDENSED>  (2299) 
Phe(2-CO2H,5-CF3)

>  <IUPAC>  (2299) 
2-((2S)-2-amino-3-hydroxy-3-oxopropyl)-4-(trifluoromethyl)benzoic acid

>  <TYPE>  (2299) 
Backbone

>  <CLASS>  (2299) 
alpha

>  <ANALOG>  (2299) 
Phe

>  <MOL_WT>  (2299) 
277.1979999999999

>  <LOGP>  (2299) 
1.3580000000000003

>  <TPSA>  (2299) 
100.62000000000002

>  <POPULARITY>  (2299) 
2.3

>  <PROTECTED>  (2299) 
TRUE

>  <SMILES>  (2299) 
N[C@@H](Cc1(cc(ccc1C(=O)O)C(F)(F)F))C(=O)O

>  <INCHIKEY>  (2299) 
LOZQAOSNLBGZHC-QMMMGPOBSA-N

$$$$
Phe_3For_4OMe
     RDKit          2D

 16 16  0  0  0  0  0  0  0  0999 V2000
   -2.5216    1.7578    0.0000 N   0  0  0  0  0  0  0  0  0  0  0  0
   -2.8455    0.2931    0.0000 C   0  0  0  0  0  0  0  0  0  0  0  0
   -1.7390   -0.7196    0.0000 C   0  0  0  0  0  0  0  0  0  0  0  0
   -0.3087   -0.2678    0.0000 C   0  0  0  0  0  0  0  0  0  0  0  0
    0.0152    1.1968    0.0000 C   0  0  0  0  0  0  0  0  0  0  0  0
    1.4455    1.6487    0.0000 C   0  0  0  0  0  0  0  0  0  0  0  0
    2.5520    0.6359    0.0000 C   0  0  0  0  0  0  0  0  0  0  0  0
    3.9823    1.0877    0.0000 O   0  0  0  0  0  0  0  0  0  0  0  0
    4.3062    2.5524    0.0000 C   0  0  0  0  0  0  0  0  0  0  0  0
    2.2281   -0.8287    0.0000 C   0  0  0  0  0  0  0  0  0  0  0  0
    3.3346   -1.8415    0.0000 C   0  0  0  0  0  0  0  0  0  0  0  0
    3.0107   -3.3061    0.0000 O   0  0  0  0  0  0  0  0  0  0  0  0
    0.7978   -1.2806    0.0000 C   0  0  0  0  0  0  0  0  0  0  0  0
   -4.2758   -0.1587    0.0000 C   0  0  0  0  0  0  0  0  0  0  0  0
   -4.5997   -1.6233    0.0000 O   0  0  0  0  0  0  0  0  0  0  0  0
   -5.3823    0.8541    0.0000 O   0  0  0  0  0  0  0  0  0  0  0  0
  2  1  1  1
  2  3  1  0
  3  4  1  0
  4  5  1  0
  5  6  2  0
  6  7  1  0
  7  8  1  0
  8  9  1  0
  7 10  2  0
 10 11  1  0
 11 12  2  0
 10 13  1  0
  2 14  1  0
 14 15  2  0
 14 16  1  0
 13  4  2  0
M  END
>  <rName>  (2300) 
Phe_3For_4OMe

>  <PQ_SYMBOL>  (2300) 
Phe_3For_4OMe

>  <FULL_NAME>  (2300) 
(S)-2-amino-3-(3-formyl-4-methoxyphenyl)propanoic acid

>  <IUPAC_CONDENSED>  (2300) 
Phe(3-For,4-OMe)

>  <IUPAC>  (2300) 
(2S)-2-amino-3-(3-(formyl)-4-methoxyphenyl)propanoic acid

>  <TYPE>  (2300) 
Backbone

>  <CLASS>  (2300) 
alpha

>  <ANALOG>  (2300) 
Tyr

>  <MOL_WT>  (2300) 
223.22799999999998

>  <LOGP>  (2300) 
0.4620999999999999

>  <TPSA>  (2300) 
89.62

>  <POPULARITY>  (2300) 
5.5

>  <PROTECTED>  (2300) 
TRUE

>  <SMILES>  (2300) 
N[C@@H](Cc1(ccc(OC)c(C=O)c1))C(=O)O

>  <INCHIKEY>  (2300) 
WEIAVLFHJDIOBA-VIFPVBQESA-N

$$$$
Tyr_iPr
     RDKit          2D

 16 16  0  0  0  0  0  0  0  0999 V2000
   -2.8646    1.6700    0.0000 N   0  0  0  0  0  0  0  0  0  0  0  0
   -3.2013    0.2083    0.0000 C   0  0  0  0  0  0  0  0  0  0  0  0
   -2.1038   -0.8141    0.0000 C   0  0  0  0  0  0  0  0  0  0  0  0
   -0.6696   -0.3749    0.0000 C   0  0  0  0  0  0  0  0  0  0  0  0
   -0.3329    1.0868    0.0000 C   0  0  0  0  0  0  0  0  0  0  0  0
    1.1014    1.5261    0.0000 C   0  0  0  0  0  0  0  0  0  0  0  0
    2.1989    0.5036    0.0000 C   0  0  0  0  0  0  0  0  0  0  0  0
    3.6332    0.9429    0.0000 O   0  0  0  0  0  0  0  0  0  0  0  0
    4.7307   -0.0796    0.0000 C   0  0  0  0  0  0  0  0  0  0  0  0
    6.1649    0.3597    0.0000 C   0  0  0  0  0  0  0  0  0  0  0  0
    4.3940   -1.5413    0.0000 C   0  0  0  0  0  0  0  0  0  0  0  0
    1.8622   -0.9581    0.0000 C   0  0  0  0  0  0  0  0  0  0  0  0
    0.4280   -1.3974    0.0000 C   0  0  0  0  0  0  0  0  0  0  0  0
   -4.6356   -0.2309    0.0000 C   0  0  0  0  0  0  0  0  0  0  0  0
   -4.9723   -1.6927    0.0000 O   0  0  0  0  0  0  0  0  0  0  0  0
   -5.7331    0.7915    0.0000 O   0  0  0  0  0  0  0  0  0  0  0  0
  2  1  1  1
  2  3  1  0
  3  4  1  0
  4  5  1  0
  5  6  2  0
  6  7  1  0
  7  8  1  0
  8  9  1  0
  9 10  1  0
  9 11  1  0
  7 12  2  0
 12 13  1  0
  2 14  1  0
 14 15  2  0
 14 16  1  0
 13  4  2  0
M  END
>  <rName>  (2301) 
Tyr_iPr

>  <PQ_SYMBOL>  (2301) 
Tyr_iPr

>  <FULL_NAME>  (2301) 
(S)-2-amino-3-(4-isopropoxyphenyl)propanoic acid

>  <IUPAC_CONDENSED>  (2301) 
Tyr(iPr)

>  <IUPAC>  (2301) 
(2S)-2-amino-3-(4-isopropoxyphenyl)propanoic acid

>  <TYPE>  (2301) 
Backbone

>  <CLASS>  (2301) 
alpha

>  <ANALOG>  (2301) 
Tyr

>  <MOL_WT>  (2301) 
223.27199999999996

>  <LOGP>  (2301) 
1.4282

>  <TPSA>  (2301) 
72.55

>  <POPULARITY>  (2301) 
7.2

>  <PROTECTED>  (2301) 
TRUE

>  <SMILES>  (2301) 
N[C@@H](Cc1(ccc(OC(C)C)cc1))C(=O)O

>  <INCHIKEY>  (2301) 
DUHXDIDGFSUWJS-NSHDSACASA-N

$$$$
3-amino-bicyclo221heptane-2-CO2H
     RDKit          2D

 11 12  0  0  0  0  0  0  0  0999 V2000
    0.4432    2.4610    0.0000 N   0  0  0  0  0  0  0  0  0  0  0  0
   -0.2528    1.1323    0.0000 C   0  0  0  0  0  0  0  0  0  0  0  0
    0.4130   -0.2118    0.0000 C   0  0  0  0  0  0  0  0  0  0  0  0
   -0.6595   -1.2605    0.0000 C   0  0  0  0  0  0  0  0  0  0  0  0
   -2.1436   -1.4784    0.0000 C   0  0  0  0  0  0  0  0  0  0  0  0
   -2.8095   -0.1343    0.0000 C   0  0  0  0  0  0  0  0  0  0  0  0
   -1.7369    0.9143    0.0000 C   0  0  0  0  0  0  0  0  0  0  0  0
   -0.4082    0.2183    0.0000 C   0  0  0  0  0  0  0  0  0  0  0  0
    1.8918   -0.4632    0.0000 C   0  0  0  0  0  0  0  0  0  0  0  0
    2.8489    0.6918    0.0000 O   0  0  0  0  0  0  0  0  0  0  0  0
    2.4136   -1.8695    0.0000 O   0  0  0  0  0  0  0  0  0  0  0  0
  1  2  1  0
  2  3  1  0
  3  4  1  0
  4  5  1  0
  5  6  1  0
  6  7  1  0
  7  8  1  0
  3  9  1  0
  9 10  2  0
  9 11  1  0
  7  2  1  0
  8  4  1  0
M  END
>  <rName>  (2302) 
3-amino-bicyclo221heptane-2-CO2H

>  <PQ_SYMBOL>  (2302) 
3-amino-bicyclo221heptane-2-CO2H

>  <FULL_NAME>  (2302) 
3-aminobicyclo[2.2.1]heptane-2-carboxylic acid

>  <IUPAC_CONDENSED>  (2302) 
3-amino-bicyclo[2.2.1]heptane-2-CO2H

>  <IUPAC>  (2302) 
3-aminobicyclo[2.2.1]heptane-2-carboxylic acid

>  <TYPE>  (2302) 
Backbone

>  <CLASS>  (2302) 
beta

>  <ANALOG>  (2302) 
X

>  <MOL_WT>  (2302) 
155.197

>  <LOGP>  (2302) 
0.44439999999999985

>  <TPSA>  (2302) 
63.32000000000001

>  <POPULARITY>  (2302) 
6.6

>  <PROTECTED>  (2302) 
TRUE

>  <SMILES>  (2302) 
NC1C(C2(CCC1C2))C(=O)O

>  <INCHIKEY>  (2302) 
JSYLGUSANAWARQ-UHFFFAOYSA-N

$$$$
D-hPhe_26diCl
     RDKit          2D

 15 15  0  0  0  0  0  0  0  0999 V2000
   -2.7730   -2.0349    0.0000 N   0  0  0  0  0  0  0  0  0  0  0  0
   -2.5947   -0.5455    0.0000 C   0  0  0  0  0  0  0  0  0  0  0  0
   -1.2157    0.0448    0.0000 C   0  0  0  0  0  0  0  0  0  0  0  0
   -0.0150   -0.8543    0.0000 C   0  0  0  0  0  0  0  0  0  0  0  0
    1.3639   -0.2640    0.0000 C   0  0  0  0  0  0  0  0  0  0  0  0
    1.5422    1.2254    0.0000 C   0  0  0  0  0  0  0  0  0  0  0  0
    0.3415    2.1245    0.0000 Cl  0  0  0  0  0  0  0  0  0  0  0  0
    2.9212    1.8157    0.0000 C   0  0  0  0  0  0  0  0  0  0  0  0
    4.1219    0.9166    0.0000 C   0  0  0  0  0  0  0  0  0  0  0  0
    3.9436   -0.5727    0.0000 C   0  0  0  0  0  0  0  0  0  0  0  0
    2.5646   -1.1630    0.0000 C   0  0  0  0  0  0  0  0  0  0  0  0
    2.3864   -2.6524    0.0000 Cl  0  0  0  0  0  0  0  0  0  0  0  0
   -3.7954    0.3536    0.0000 C   0  0  0  0  0  0  0  0  0  0  0  0
   -3.6171    1.8429    0.0000 O   0  0  0  0  0  0  0  0  0  0  0  0
   -5.1744   -0.2367    0.0000 O   0  0  0  0  0  0  0  0  0  0  0  0
  2  1  1  1
  2  3  1  0
  3  4  1  0
  4  5  1  0
  5  6  2  0
  6  7  1  0
  6  8  1  0
  8  9  2  0
  9 10  1  0
 10 11  2  0
 11 12  1  0
  2 13  1  0
 13 14  2  0
 13 15  1  0
 11  5  1  0
M  END
>  <rName>  (2303) 
D-hPhe_26diCl

>  <PQ_SYMBOL>  (2303) 
D-hPhe_26diCl

>  <FULL_NAME>  (2303) 
(R)-2-amino-4-(2,6-dichlorophenyl)butanoic acid

>  <IUPAC_CONDENSED>  (2303) 
D-hPhe(2,6-diCl)

>  <IUPAC>  (2303) 
(2R)-2-amino-4-(2,6-dichlorophenyl)butanoic acid

>  <TYPE>  (2303) 
Backbone

>  <CLASS>  (2303) 
alpha

>  <ANALOG>  (2303) 
Phe

>  <MOL_WT>  (2303) 
248.109

>  <LOGP>  (2303) 
2.3378999999999994

>  <TPSA>  (2303) 
63.32000000000001

>  <POPULARITY>  (2303) 
2.9

>  <PROTECTED>  (2303) 
TRUE

>  <SMILES>  (2303) 
N[C@H](CCc1(c(Cl)cccc1Cl))C(=O)O

>  <INCHIKEY>  (2303) 
ZUJMOCTVPCVSRM-SECBINFHSA-N

$$$$
hPhe_26diCl
     RDKit          2D

 15 15  0  0  0  0  0  0  0  0999 V2000
   -2.7730   -2.0349    0.0000 N   0  0  0  0  0  0  0  0  0  0  0  0
   -2.5947   -0.5455    0.0000 C   0  0  0  0  0  0  0  0  0  0  0  0
   -1.2157    0.0448    0.0000 C   0  0  0  0  0  0  0  0  0  0  0  0
   -0.0150   -0.8543    0.0000 C   0  0  0  0  0  0  0  0  0  0  0  0
    1.3639   -0.2640    0.0000 C   0  0  0  0  0  0  0  0  0  0  0  0
    1.5422    1.2254    0.0000 C   0  0  0  0  0  0  0  0  0  0  0  0
    0.3415    2.1245    0.0000 Cl  0  0  0  0  0  0  0  0  0  0  0  0
    2.9212    1.8157    0.0000 C   0  0  0  0  0  0  0  0  0  0  0  0
    4.1219    0.9166    0.0000 C   0  0  0  0  0  0  0  0  0  0  0  0
    3.9436   -0.5727    0.0000 C   0  0  0  0  0  0  0  0  0  0  0  0
    2.5646   -1.1630    0.0000 C   0  0  0  0  0  0  0  0  0  0  0  0
    2.3864   -2.6524    0.0000 Cl  0  0  0  0  0  0  0  0  0  0  0  0
   -3.7954    0.3536    0.0000 C   0  0  0  0  0  0  0  0  0  0  0  0
   -3.6171    1.8429    0.0000 O   0  0  0  0  0  0  0  0  0  0  0  0
   -5.1744   -0.2367    0.0000 O   0  0  0  0  0  0  0  0  0  0  0  0
  2  1  1  6
  2  3  1  0
  3  4  1  0
  4  5  1  0
  5  6  2  0
  6  7  1  0
  6  8  1  0
  8  9  2  0
  9 10  1  0
 10 11  2  0
 11 12  1  0
  2 13  1  0
 13 14  2  0
 13 15  1  0
 11  5  1  0
M  END
>  <rName>  (2304) 
hPhe_26diCl

>  <PQ_SYMBOL>  (2304) 
hPhe_26diCl

>  <FULL_NAME>  (2304) 
(S)-2-amino-4-(2,6-dichlorophenyl)butanoic acid

>  <IUPAC_CONDENSED>  (2304) 
hPhe(2,6-diCl)

>  <IUPAC>  (2304) 
(2S)-2-amino-4-(2,6-dichlorophenyl)butanoic acid

>  <TYPE>  (2304) 
Backbone

>  <CLASS>  (2304) 
alpha

>  <ANALOG>  (2304) 
Phe

>  <MOL_WT>  (2304) 
248.109

>  <LOGP>  (2304) 
2.3378999999999994

>  <TPSA>  (2304) 
63.32000000000001

>  <POPULARITY>  (2304) 
3.8

>  <PROTECTED>  (2304) 
TRUE

>  <SMILES>  (2304) 
N[C@@H](CCc1(c(Cl)cccc1Cl))C(=O)O

>  <INCHIKEY>  (2304) 
ZUJMOCTVPCVSRM-VIFPVBQESA-N

$$$$
3Pal_6NH2
     RDKit          2D

 13 13  0  0  0  0  0  0  0  0999 V2000
   -1.5766    1.6851    0.0000 N   0  0  0  0  0  0  0  0  0  0  0  0
   -2.0128    0.2500    0.0000 C   0  0  0  0  0  0  0  0  0  0  0  0
   -0.9880   -0.8454    0.0000 C   0  0  0  0  0  0  0  0  0  0  0  0
    0.4730   -0.5055    0.0000 C   0  0  0  0  0  0  0  0  0  0  0  0
    0.9092    0.9296    0.0000 C   0  0  0  0  0  0  0  0  0  0  0  0
    2.3702    1.2695    0.0000 C   0  0  0  0  0  0  0  0  0  0  0  0
    3.3950    0.1741    0.0000 C   0  0  0  0  0  0  0  0  0  0  0  0
    4.8560    0.5140    0.0000 N   0  0  0  0  0  0  0  0  0  0  0  0
    2.9588   -1.2611    0.0000 N   0  0  0  0  0  0  0  0  0  0  0  0
    1.4978   -1.6009    0.0000 C   0  0  0  0  0  0  0  0  0  0  0  0
   -3.4738   -0.0899    0.0000 C   0  0  0  0  0  0  0  0  0  0  0  0
   -3.9100   -1.5250    0.0000 O   0  0  0  0  0  0  0  0  0  0  0  0
   -4.4986    1.0055    0.0000 O   0  0  0  0  0  0  0  0  0  0  0  0
  2  1  1  1
  2  3  1  0
  3  4  1  0
  4  5  1  0
  5  6  2  0
  6  7  1  0
  7  8  1  0
  7  9  2  0
  9 10  1  0
  2 11  1  0
 11 12  2  0
 11 13  1  0
 10  4  2  0
M  END
>  <rName>  (2305) 
3Pal_6NH2

>  <PQ_SYMBOL>  (2305) 
3Pal_6NH2

>  <FULL_NAME>  (2305) 
(S)-2-amino-3-(6-aminopyridin-3-yl)propanoic acid

>  <IUPAC_CONDENSED>  (2305) 
3Pal(6-NH2)

>  <IUPAC>  (2305) 
(2S)-2-amino-3-(6-aminopyridin-3-yl)propanoic acid

>  <TYPE>  (2305) 
Backbone

>  <CLASS>  (2305) 
alpha

>  <ANALOG>  (2305) 
Phe

>  <MOL_WT>  (2305) 
181.195

>  <LOGP>  (2305) 
-0.3818000000000002

>  <TPSA>  (2305) 
102.23

>  <POPULARITY>  (2305) 
4.6

>  <PROTECTED>  (2305) 
TRUE

>  <SMILES>  (2305) 
N[C@@H](Cc1(ccc(N)nc1))C(=O)O

>  <INCHIKEY>  (2305) 
QYSLVOCACBAADU-LURJTMIESA-N

$$$$
Ala_pyrimid5yl_2NH2
     RDKit          2D

 13 13  0  0  0  0  0  0  0  0999 V2000
   -1.5766    1.6851    0.0000 N   0  0  0  0  0  0  0  0  0  0  0  0
   -2.0128    0.2500    0.0000 C   0  0  0  0  0  0  0  0  0  0  0  0
   -0.9880   -0.8454    0.0000 C   0  0  0  0  0  0  0  0  0  0  0  0
    0.4730   -0.5055    0.0000 C   0  0  0  0  0  0  0  0  0  0  0  0
    0.9092    0.9296    0.0000 C   0  0  0  0  0  0  0  0  0  0  0  0
    2.3702    1.2695    0.0000 N   0  0  0  0  0  0  0  0  0  0  0  0
    3.3950    0.1741    0.0000 C   0  0  0  0  0  0  0  0  0  0  0  0
    4.8560    0.5140    0.0000 N   0  0  0  0  0  0  0  0  0  0  0  0
    2.9588   -1.2611    0.0000 N   0  0  0  0  0  0  0  0  0  0  0  0
    1.4978   -1.6009    0.0000 C   0  0  0  0  0  0  0  0  0  0  0  0
   -3.4738   -0.0899    0.0000 C   0  0  0  0  0  0  0  0  0  0  0  0
   -3.9100   -1.5250    0.0000 O   0  0  0  0  0  0  0  0  0  0  0  0
   -4.4986    1.0055    0.0000 O   0  0  0  0  0  0  0  0  0  0  0  0
  2  1  1  1
  2  3  1  0
  3  4  1  0
  4  5  1  0
  5  6  2  0
  6  7  1  0
  7  8  1  0
  7  9  2  0
  9 10  1  0
  2 11  1  0
 11 12  2  0
 11 13  1  0
 10  4  2  0
M  END
>  <rName>  (2306) 
Ala_pyrimid5yl_2NH2

>  <PQ_SYMBOL>  (2306) 
Ala_pyrimid5yl_2NH2

>  <FULL_NAME>  (2306) 
(S)-2-amino-3-(2-aminopyrimidin-5-yl)propanoic acid

>  <IUPAC_CONDENSED>  (2306) 
Ala(pyrimid-5-yl(2-NH2))

>  <IUPAC>  (2306) 
(2S)-2-amino-3-(2-aminopyrimidin-5-yl)propanoic acid

>  <TYPE>  (2306) 
Backbone

>  <CLASS>  (2306) 
alpha

>  <ANALOG>  (2306) 
Phe

>  <MOL_WT>  (2306) 
182.18300000000002

>  <LOGP>  (2306) 
-0.9867999999999995

>  <TPSA>  (2306) 
115.11999999999999

>  <POPULARITY>  (2306) 
3.1

>  <PROTECTED>  (2306) 
TRUE

>  <SMILES>  (2306) 
N[C@@H](Cc1(cnc(N)nc1))C(=O)O

>  <INCHIKEY>  (2306) 
FTJNUKPPWFTTBK-YFKPBYRVSA-N

$$$$
Ala_pyrid3yl_2F
     RDKit          2D

 13 13  0  0  0  0  0  0  0  0999 V2000
   -1.4864    1.8099    0.0000 N   0  0  0  0  0  0  0  0  0  0  0  0
   -1.7669    0.3364    0.0000 C   0  0  0  0  0  0  0  0  0  0  0  0
   -0.6311   -0.6433    0.0000 C   0  0  0  0  0  0  0  0  0  0  0  0
    0.7853   -0.1495    0.0000 C   0  0  0  0  0  0  0  0  0  0  0  0
    1.0658    1.3241    0.0000 C   0  0  0  0  0  0  0  0  0  0  0  0
    2.4822    1.8179    0.0000 C   0  0  0  0  0  0  0  0  0  0  0  0
    3.6181    0.8382    0.0000 C   0  0  0  0  0  0  0  0  0  0  0  0
    3.3376   -0.6353    0.0000 N   0  0  0  0  0  0  0  0  0  0  0  0
    1.9212   -1.1292    0.0000 C   0  0  0  0  0  0  0  0  0  0  0  0
    1.6407   -2.6027    0.0000 F   0  0  0  0  0  0  0  0  0  0  0  0
   -3.1833   -0.1575    0.0000 C   0  0  0  0  0  0  0  0  0  0  0  0
   -3.4638   -1.6310    0.0000 O   0  0  0  0  0  0  0  0  0  0  0  0
   -4.3192    0.8222    0.0000 O   0  0  0  0  0  0  0  0  0  0  0  0
  2  1  1  1
  2  3  1  0
  3  4  1  0
  4  5  2  0
  5  6  1  0
  6  7  2  0
  7  8  1  0
  8  9  2  0
  9 10  1  0
  2 11  1  0
 11 12  2  0
 11 13  1  0
  9  4  1  0
M  END
>  <rName>  (2307) 
Ala_pyrid3yl_2F

>  <PQ_SYMBOL>  (2307) 
Ala_pyrid3yl_2F

>  <FULL_NAME>  (2307) 
(S)-2-amino-3-(2-fluoropyridin-3-yl)propanoic acid

>  <IUPAC_CONDENSED>  (2307) 
Ala(pyrid-3-yl(2-F))

>  <IUPAC>  (2307) 
(2S)-2-amino-3-(2-fluoropyridin-3-yl)propanoic acid

>  <TYPE>  (2307) 
Backbone

>  <CLASS>  (2307) 
alpha

>  <ANALOG>  (2307) 
Phe

>  <MOL_WT>  (2307) 
184.16999999999996

>  <LOGP>  (2307) 
0.17509999999999998

>  <TPSA>  (2307) 
76.21

>  <POPULARITY>  (2307) 
2.9

>  <PROTECTED>  (2307) 
TRUE

>  <SMILES>  (2307) 
N[C@@H](Cc1(cccnc1F))C(=O)O

>  <INCHIKEY>  (2307) 
FUIYXOOSTLSUNT-LURJTMIESA-N

$$$$
Phe_4ethynylTMS
     RDKit          2D

 18 18  0  0  0  0  0  0  0  0999 V2000
   -3.5704    1.7467    0.0000 N   0  0  0  0  0  0  0  0  0  0  0  0
   -4.1580    0.3666    0.0000 C   0  0  0  0  0  0  0  0  0  0  0  0
   -3.2567   -0.8323    0.0000 C   0  0  0  0  0  0  0  0  0  0  0  0
   -1.7676   -0.6512    0.0000 C   0  0  0  0  0  0  0  0  0  0  0  0
   -1.1800    0.7289    0.0000 C   0  0  0  0  0  0  0  0  0  0  0  0
    0.3090    0.9100    0.0000 C   0  0  0  0  0  0  0  0  0  0  0  0
    1.2104   -0.2890    0.0000 C   0  0  0  0  0  0  0  0  0  0  0  0
    2.6994   -0.1079    0.0000 C   0  0  0  0  0  0  0  0  0  0  0  0
    4.1885    0.0733    0.0000 C   0  0  0  0  0  0  0  0  0  0  0  0
    5.6775    0.2544    0.0000 Si  0  0  0  0  0  4  0  0  0  0  0  0
    5.8586   -1.2346    0.0000 C   0  0  0  0  0  0  0  0  0  0  0  0
    5.4964    1.7434    0.0000 C   0  0  0  0  0  0  0  0  0  0  0  0
    7.1665    0.4355    0.0000 C   0  0  0  0  0  0  0  0  0  0  0  0
    0.6228   -1.6691    0.0000 C   0  0  0  0  0  0  0  0  0  0  0  0
   -0.8663   -1.8502    0.0000 C   0  0  0  0  0  0  0  0  0  0  0  0
   -5.6471    0.1855    0.0000 C   0  0  0  0  0  0  0  0  0  0  0  0
   -6.2347   -1.1946    0.0000 O   0  0  0  0  0  0  0  0  0  0  0  0
   -6.5484    1.3845    0.0000 O   0  0  0  0  0  0  0  0  0  0  0  0
  2  1  1  1
  2  3  1  0
  3  4  1  0
  4  5  1  0
  5  6  2  0
  6  7  1  0
  7  8  1  0
  8  9  3  0
  9 10  1  0
 10 11  1  0
 10 12  1  0
 10 13  1  0
  7 14  2  0
 14 15  1  0
  2 16  1  0
 16 17  2  0
 16 18  1  0
 15  4  2  0
M  END
>  <rName>  (2308) 
Phe_4ethynylTMS

>  <PQ_SYMBOL>  (2308) 
Phe_4ethynylTMS

>  <FULL_NAME>  (2308) 
(S)-2-amino-3-(4-((trimethylsilyl)ethynyl)phenyl)propanoic acid

>  <IUPAC_CONDENSED>  (2308) 
Phe(4-ethynylTMS)

>  <IUPAC>  (2308) 
(2S)-2-amino-3-(4-(2-(trimethylsilyl)ethynyl)phenyl)propanoic acid

>  <TYPE>  (2308) 
Backbone

>  <CLASS>  (2308) 
alpha

>  <ANALOG>  (2308) 
Phe

>  <MOL_WT>  (2308) 
261.39699999999993

>  <LOGP>  (2308) 
1.8699000000000003

>  <TPSA>  (2308) 
63.32000000000001

>  <POPULARITY>  (2308) 
2.6

>  <PROTECTED>  (2308) 
TRUE

>  <SMILES>  (2308) 
N[C@@H](Cc1(ccc(C#C[Si](C)(C)C)cc1))C(=O)O

>  <INCHIKEY>  (2308) 
FWTNTVOWPVLODN-ZDUSSCGKSA-N

$$$$
Ala_pyrazin2yl_5Cl
     RDKit          2D

 13 13  0  0  0  0  0  0  0  0999 V2000
   -1.5766    1.6851    0.0000 N   0  0  0  0  0  0  0  0  0  0  0  0
   -2.0128    0.2500    0.0000 C   0  0  0  0  0  0  0  0  0  0  0  0
   -0.9880   -0.8454    0.0000 C   0  0  0  0  0  0  0  0  0  0  0  0
    0.4730   -0.5055    0.0000 C   0  0  0  0  0  0  0  0  0  0  0  0
    0.9092    0.9296    0.0000 C   0  0  0  0  0  0  0  0  0  0  0  0
    2.3702    1.2695    0.0000 N   0  0  0  0  0  0  0  0  0  0  0  0
    3.3950    0.1741    0.0000 C   0  0  0  0  0  0  0  0  0  0  0  0
    4.8560    0.5140    0.0000 Cl  0  0  0  0  0  0  0  0  0  0  0  0
    2.9588   -1.2611    0.0000 C   0  0  0  0  0  0  0  0  0  0  0  0
    1.4978   -1.6009    0.0000 N   0  0  0  0  0  0  0  0  0  0  0  0
   -3.4738   -0.0899    0.0000 C   0  0  0  0  0  0  0  0  0  0  0  0
   -3.9100   -1.5250    0.0000 O   0  0  0  0  0  0  0  0  0  0  0  0
   -4.4986    1.0055    0.0000 O   0  0  0  0  0  0  0  0  0  0  0  0
  2  1  1  1
  2  3  1  0
  3  4  1  0
  4  5  2  0
  5  6  1  0
  6  7  2  0
  7  8  1  0
  7  9  1  0
  9 10  2  0
  2 11  1  0
 11 12  2  0
 11 13  1  0
 10  4  1  0
M  END
>  <rName>  (2309) 
Ala_pyrazin2yl_5Cl

>  <PQ_SYMBOL>  (2309) 
Ala_pyrazin2yl_5Cl

>  <FULL_NAME>  (2309) 
(S)-2-amino-3-(5-chloropyrazin-2-yl)propanoic acid

>  <IUPAC_CONDENSED>  (2309) 
Ala(pyrazin-2-yl(5-Cl))

>  <IUPAC>  (2309) 
(2S)-2-amino-3-(5-chloropyrazin-2-yl)propanoic acid

>  <TYPE>  (2309) 
Backbone

>  <CLASS>  (2309) 
alpha

>  <ANALOG>  (2309) 
Phe

>  <MOL_WT>  (2309) 
201.613

>  <LOGP>  (2309) 
0.0844000000000002

>  <TPSA>  (2309) 
89.10000000000001

>  <POPULARITY>  (2309) 
2.5

>  <PROTECTED>  (2309) 
TRUE

>  <SMILES>  (2309) 
N[C@@H](Cc1(cnc(Cl)cn1))C(=O)O

>  <INCHIKEY>  (2309) 
BRNQCNIJEIMUBT-YFKPBYRVSA-N

$$$$
Ala_pyrid3yl_5OMe
     RDKit          2D

 14 14  0  0  0  0  0  0  0  0999 V2000
   -2.2742    1.6194    0.0000 N   0  0  0  0  0  0  0  0  0  0  0  0
   -2.3172    0.1200    0.0000 C   0  0  0  0  0  0  0  0  0  0  0  0
   -1.0402   -0.6669    0.0000 C   0  0  0  0  0  0  0  0  0  0  0  0
    0.2798    0.0456    0.0000 C   0  0  0  0  0  0  0  0  0  0  0  0
    0.3228    1.5450    0.0000 C   0  0  0  0  0  0  0  0  0  0  0  0
    1.6428    2.2574    0.0000 N   0  0  0  0  0  0  0  0  0  0  0  0
    2.9198    1.4705    0.0000 C   0  0  0  0  0  0  0  0  0  0  0  0
    2.8768   -0.0289    0.0000 C   0  0  0  0  0  0  0  0  0  0  0  0
    4.1538   -0.8158    0.0000 O   0  0  0  0  0  0  0  0  0  0  0  0
    4.1108   -2.3152    0.0000 C   0  0  0  0  0  0  0  0  0  0  0  0
    1.5568   -0.7414    0.0000 C   0  0  0  0  0  0  0  0  0  0  0  0
   -3.6372   -0.5924    0.0000 C   0  0  0  0  0  0  0  0  0  0  0  0
   -3.6802   -2.0918    0.0000 O   0  0  0  0  0  0  0  0  0  0  0  0
   -4.9142    0.1945    0.0000 O   0  0  0  0  0  0  0  0  0  0  0  0
  2  1  1  1
  2  3  1  0
  3  4  1  0
  4  5  1  0
  5  6  2  0
  6  7  1  0
  7  8  2  0
  8  9  1  0
  9 10  1  0
  8 11  1  0
  2 12  1  0
 12 13  2  0
 12 14  1  0
 11  4  2  0
M  END
>  <rName>  (2310) 
Ala_pyrid3yl_5OMe

>  <PQ_SYMBOL>  (2310) 
Ala_pyrid3yl_5OMe

>  <FULL_NAME>  (2310) 
(S)-2-amino-3-(5-methoxypyridin-3-yl)propanoic acid

>  <IUPAC_CONDENSED>  (2310) 
Ala(pyrid-3-yl(5-OMe))

>  <IUPAC>  (2310) 
(2S)-2-amino-3-(5-methoxypyridin-3-yl)propanoic acid

>  <TYPE>  (2310) 
Backbone

>  <CLASS>  (2310) 
alpha

>  <ANALOG>  (2310) 
Phe

>  <MOL_WT>  (2310) 
196.206

>  <LOGP>  (2310) 
0.044599999999999695

>  <TPSA>  (2310) 
85.44000000000001

>  <POPULARITY>  (2310) 
3

>  <PROTECTED>  (2310) 
TRUE

>  <SMILES>  (2310) 
N[C@@H](Cc1(cncc(OC)c1))C(=O)O

>  <INCHIKEY>  (2310) 
RZSVPGOEDVAABX-QMMMGPOBSA-N

$$$$
Phe_2Cl_3Me
     RDKit          2D

 14 14  0  0  0  0  0  0  0  0999 V2000
   -1.9599    1.7683    0.0000 N   0  0  0  0  0  0  0  0  0  0  0  0
   -2.1168    0.2766    0.0000 C   0  0  0  0  0  0  0  0  0  0  0  0
   -0.9034   -0.6052    0.0000 C   0  0  0  0  0  0  0  0  0  0  0  0
    0.4670    0.0047    0.0000 C   0  0  0  0  0  0  0  0  0  0  0  0
    0.6239    1.4965    0.0000 C   0  0  0  0  0  0  0  0  0  0  0  0
    1.9943    2.1065    0.0000 C   0  0  0  0  0  0  0  0  0  0  0  0
    3.2078    1.2247    0.0000 C   0  0  0  0  0  0  0  0  0  0  0  0
    3.0508   -0.2671    0.0000 C   0  0  0  0  0  0  0  0  0  0  0  0
    4.2643   -1.1489    0.0000 C   0  0  0  0  0  0  0  0  0  0  0  0
    1.6804   -0.8771    0.0000 C   0  0  0  0  0  0  0  0  0  0  0  0
    1.5235   -2.3688    0.0000 Cl  0  0  0  0  0  0  0  0  0  0  0  0
   -3.4872   -0.3334    0.0000 C   0  0  0  0  0  0  0  0  0  0  0  0
   -3.6441   -1.8252    0.0000 O   0  0  0  0  0  0  0  0  0  0  0  0
   -4.7006    0.5484    0.0000 O   0  0  0  0  0  0  0  0  0  0  0  0
  2  1  1  1
  2  3  1  0
  3  4  1  0
  4  5  2  0
  5  6  1  0
  6  7  2  0
  7  8  1  0
  8  9  1  0
  8 10  2  0
 10 11  1  0
  2 12  1  0
 12 13  2  0
 12 14  1  0
 10  4  1  0
M  END
>  <rName>  (2311) 
Phe_2Cl_3Me

>  <PQ_SYMBOL>  (2311) 
Phe_2Cl_3Me

>  <FULL_NAME>  (2311) 
(S)-2-amino-3-(2-chloro-3-methylphenyl)propanoic acid

>  <IUPAC_CONDENSED>  (2311) 
Phe(2-Cl,3-Me)

>  <IUPAC>  (2311) 
(2S)-2-amino-3-(2-chloro-3-methylphenyl)propanoic acid

>  <TYPE>  (2311) 
Backbone

>  <CLASS>  (2311) 
alpha

>  <ANALOG>  (2311) 
Phe

>  <MOL_WT>  (2311) 
213.66399999999996

>  <LOGP>  (2311) 
1.6028200000000001

>  <TPSA>  (2311) 
63.32000000000001

>  <POPULARITY>  (2311) 
2.9

>  <PROTECTED>  (2311) 
TRUE

>  <SMILES>  (2311) 
N[C@@H](Cc1(cccc(C)c1Cl))C(=O)O

>  <INCHIKEY>  (2311) 
CXIIESGNKPKHIW-QMMMGPOBSA-N

$$$$
Ala_pyrazol4yl_3CF3_5Me
     RDKit          2D

 16 16  0  0  0  0  0  0  0  0999 V2000
   -2.4102    1.4904    0.0000 N   0  0  0  0  0  0  0  0  0  0  0  0
   -2.1426    0.0144    0.0000 C   0  0  0  0  0  0  0  0  0  0  0  0
   -0.7307   -0.4919    0.0000 C   0  0  0  0  0  0  0  0  0  0  0  0
    0.4138    0.4778    0.0000 C   0  0  0  0  0  0  0  0  0  0  0  0
    1.8709    0.1218    0.0000 C   0  0  0  0  0  0  0  0  0  0  0  0
    2.6597    1.3977    0.0000 N   0  0  0  0  0  0  0  0  0  0  0  0
    1.6901    2.5421    0.0000 N   0  0  0  0  0  0  0  0  0  0  0  0
    0.3020    1.9736    0.0000 C   0  0  0  0  0  0  0  0  0  0  0  0
   -0.9738    2.7624    0.0000 C   0  0  0  0  0  0  0  0  0  0  0  0
    2.4395   -1.2662    0.0000 C   0  0  0  0  0  0  0  0  0  0  0  0
    3.0080   -2.6543    0.0000 F   0  0  0  0  0  0  0  0  0  0  0  0
    3.8276   -0.6977    0.0000 F   0  0  0  0  0  0  0  0  0  0  0  0
    1.0514   -1.8348    0.0000 F   0  0  0  0  0  0  0  0  0  0  0  0
   -3.2871   -0.9552    0.0000 C   0  0  0  0  0  0  0  0  0  0  0  0
   -3.0196   -2.4312    0.0000 O   0  0  0  0  0  0  0  0  0  0  0  0
   -4.6991   -0.4489    0.0000 O   0  0  0  0  0  0  0  0  0  0  0  0
  2  1  1  1
  2  3  1  0
  3  4  1  0
  4  5  1  0
  5  6  2  0
  6  7  1  0
  7  8  1  0
  8  9  1  0
  5 10  1  0
 10 11  1  0
 10 12  1  0
 10 13  1  0
  2 14  1  0
 14 15  2  0
 14 16  1  0
  8  4  2  0
M  END
>  <rName>  (2312) 
Ala_pyrazol4yl_3CF3_5Me

>  <PQ_SYMBOL>  (2312) 
Ala_pyrazol4yl_3CF3_5Me

>  <FULL_NAME>  (2312) 
(S)-2-amino-3-(5-methyl-3-(trifluoromethyl)-1H-pyrazol-4-yl)propanoic acid

>  <IUPAC_CONDENSED>  (2312) 
Ala(pyrazol-4-yl(3-CF3,5-Me))

>  <IUPAC>  (2312) 
(2S)-2-amino-3-(5-methyl-3-(trifluoromethyl)-1H-pyrazol-4-yl)propanoic acid

>  <TYPE>  (2312) 
Backbone

>  <CLASS>  (2312) 
alpha

>  <ANALOG>  (2312) 
Phe

>  <MOL_WT>  (2312) 
237.18099999999995

>  <LOGP>  (2312) 
0.6913200000000002

>  <TPSA>  (2312) 
92

>  <POPULARITY>  (2312) 
2.4

>  <PROTECTED>  (2312) 
TRUE

>  <SMILES>  (2312) 
N[C@@H](Cc1(c(n[nH]c1C)C(F)(F)F))C(=O)O

>  <INCHIKEY>  (2312) 
XXDBLZYLWPJECP-YFKPBYRVSA-N

$$$$
Phe_2OH_4tBu
     RDKit          2D

 17 17  0  0  0  0  0  0  0  0999 V2000
   -2.4937    1.8764    0.0000 N   0  0  0  0  0  0  0  0  0  0  0  0
   -2.9991    0.4641    0.0000 C   0  0  0  0  0  0  0  0  0  0  0  0
   -2.0288   -0.6797    0.0000 C   0  0  0  0  0  0  0  0  0  0  0  0
   -0.5530   -0.4113    0.0000 C   0  0  0  0  0  0  0  0  0  0  0  0
   -0.0476    1.0010    0.0000 C   0  0  0  0  0  0  0  0  0  0  0  0
    1.4282    1.2695    0.0000 C   0  0  0  0  0  0  0  0  0  0  0  0
    2.3986    0.1256    0.0000 C   0  0  0  0  0  0  0  0  0  0  0  0
    1.8932   -1.2867    0.0000 C   0  0  0  0  0  0  0  0  0  0  0  0
    0.4174   -1.5551    0.0000 C   0  0  0  0  0  0  0  0  0  0  0  0
   -0.0880   -2.9674    0.0000 O   0  0  0  0  0  0  0  0  0  0  0  0
    3.8744    0.3941    0.0000 C   0  0  0  0  0  0  0  0  0  0  0  0
    4.1428   -1.0817    0.0000 C   0  0  0  0  0  0  0  0  0  0  0  0
    3.6059    1.8699    0.0000 C   0  0  0  0  0  0  0  0  0  0  0  0
    5.3502    0.6625    0.0000 C   0  0  0  0  0  0  0  0  0  0  0  0
   -4.4749    0.1957    0.0000 C   0  0  0  0  0  0  0  0  0  0  0  0
   -4.9803   -1.2166    0.0000 O   0  0  0  0  0  0  0  0  0  0  0  0
   -5.4453    1.3395    0.0000 O   0  0  0  0  0  0  0  0  0  0  0  0
  2  1  1  1
  2  3  1  0
  3  4  1  0
  4  5  1  0
  5  6  2  0
  6  7  1  0
  7  8  2  0
  8  9  1  0
  9 10  1  0
  7 11  1  0
 11 12  1  0
 11 13  1  0
 11 14  1  0
  2 15  1  0
 15 16  2  0
 15 17  1  0
  9  4  2  0
M  END
>  <rName>  (2313) 
Phe_2OH_4tBu

>  <PQ_SYMBOL>  (2313) 
Phe_2OH_4tBu

>  <FULL_NAME>  (2313) 
(S)-2-amino-3-(4-(tert-butyl)-2-hydroxyphenyl)propanoic acid

>  <IUPAC_CONDENSED>  (2313) 
Phe(2-OH,4-tBu)

>  <IUPAC>  (2313) 
(2S)-2-amino-3-(4-(tert-butyl)-2-hydroxyphenyl)propanoic acid

>  <TYPE>  (2313) 
Backbone

>  <CLASS>  (2313) 
alpha

>  <ANALOG>  (2313) 
Tyr

>  <MOL_WT>  (2313) 
237.29899999999995

>  <LOGP>  (2313) 
1.6441000000000001

>  <TPSA>  (2313) 
83.55

>  <POPULARITY>  (2313) 
2.5

>  <PROTECTED>  (2313) 
TRUE

>  <SMILES>  (2313) 
N[C@@H](Cc1(ccc(cc1O)C(C)(C)C))C(=O)O

>  <INCHIKEY>  (2313) 
JGPDCKDIFJNPAX-JTQLQIEISA-N

$$$$
Ala_pyrid2yl_3Me
     RDKit          2D

 13 13  0  0  0  0  0  0  0  0999 V2000
   -1.4864    1.8099    0.0000 N   0  0  0  0  0  0  0  0  0  0  0  0
   -1.7669    0.3364    0.0000 C   0  0  0  0  0  0  0  0  0  0  0  0
   -0.6311   -0.6433    0.0000 C   0  0  0  0  0  0  0  0  0  0  0  0
    0.7853   -0.1495    0.0000 C   0  0  0  0  0  0  0  0  0  0  0  0
    1.0658    1.3241    0.0000 N   0  0  0  0  0  0  0  0  0  0  0  0
    2.4822    1.8179    0.0000 C   0  0  0  0  0  0  0  0  0  0  0  0
    3.6181    0.8382    0.0000 C   0  0  0  0  0  0  0  0  0  0  0  0
    3.3376   -0.6353    0.0000 C   0  0  0  0  0  0  0  0  0  0  0  0
    1.9212   -1.1292    0.0000 C   0  0  0  0  0  0  0  0  0  0  0  0
    1.6407   -2.6027    0.0000 C   0  0  0  0  0  0  0  0  0  0  0  0
   -3.1833   -0.1575    0.0000 C   0  0  0  0  0  0  0  0  0  0  0  0
   -3.4638   -1.6310    0.0000 O   0  0  0  0  0  0  0  0  0  0  0  0
   -4.3192    0.8222    0.0000 O   0  0  0  0  0  0  0  0  0  0  0  0
  2  1  1  1
  2  3  1  0
  3  4  1  0
  4  5  2  0
  5  6  1  0
  6  7  2  0
  7  8  1  0
  8  9  2  0
  9 10  1  0
  2 11  1  0
 11 12  2  0
 11 13  1  0
  9  4  1  0
M  END
>  <rName>  (2314) 
Ala_pyrid2yl_3Me

>  <PQ_SYMBOL>  (2314) 
Ala_pyrid2yl_3Me

>  <FULL_NAME>  (2314) 
(S)-2-amino-3-(3-methylpyridin-2-yl)propanoic acid

>  <IUPAC_CONDENSED>  (2314) 
Ala(pyrid-2-yl(3-Me))

>  <IUPAC>  (2314) 
(2S)-2-amino-3-(3-methylpyridin-2-yl)propanoic acid

>  <TYPE>  (2314) 
Backbone

>  <CLASS>  (2314) 
alpha

>  <ANALOG>  (2314) 
Phe

>  <MOL_WT>  (2314) 
180.20699999999997

>  <LOGP>  (2314) 
0.34441999999999967

>  <TPSA>  (2314) 
76.21

>  <POPULARITY>  (2314) 
5

>  <PROTECTED>  (2314) 
TRUE

>  <SMILES>  (2314) 
N[C@@H](Cc1(ncccc1C))C(=O)O

>  <INCHIKEY>  (2314) 
OHRRKEYAYSAHJG-ZETCQYMHSA-N

$$$$
Phe_3OCHF2
     RDKit          2D

 16 16  0  0  0  0  0  0  0  0999 V2000
   -3.1121    1.4434    0.0000 N   0  0  0  0  0  0  0  0  0  0  0  0
   -2.8725   -0.0373    0.0000 C   0  0  0  0  0  0  0  0  0  0  0  0
   -1.4704   -0.5702    0.0000 C   0  0  0  0  0  0  0  0  0  0  0  0
   -0.3078    0.3776    0.0000 C   0  0  0  0  0  0  0  0  0  0  0  0
   -0.5473    1.8583    0.0000 C   0  0  0  0  0  0  0  0  0  0  0  0
    0.6153    2.8061    0.0000 C   0  0  0  0  0  0  0  0  0  0  0  0
    2.0174    2.2732    0.0000 C   0  0  0  0  0  0  0  0  0  0  0  0
    2.2569    0.7924    0.0000 C   0  0  0  0  0  0  0  0  0  0  0  0
    3.6591    0.2595    0.0000 O   0  0  0  0  0  0  0  0  0  0  0  0
    3.8986   -1.2212    0.0000 C   0  0  0  0  0  0  0  0  0  0  0  0
    5.3007   -1.7542    0.0000 F   0  0  0  0  0  0  0  0  0  0  0  0
    2.7360   -2.1691    0.0000 F   0  0  0  0  0  0  0  0  0  0  0  0
    1.0943   -0.1554    0.0000 C   0  0  0  0  0  0  0  0  0  0  0  0
   -4.0352   -0.9851    0.0000 C   0  0  0  0  0  0  0  0  0  0  0  0
   -3.7956   -2.4659    0.0000 O   0  0  0  0  0  0  0  0  0  0  0  0
   -5.4373   -0.4522    0.0000 O   0  0  0  0  0  0  0  0  0  0  0  0
  2  1  1  1
  2  3  1  0
  3  4  1  0
  4  5  1  0
  5  6  2  0
  6  7  1  0
  7  8  2  0
  8  9  1  0
  9 10  1  0
 10 11  1  0
 10 12  1  0
  8 13  1  0
  2 14  1  0
 14 15  2  0
 14 16  1  0
 13  4  2  0
M  END
>  <rName>  (2315) 
Phe_3OCHF2

>  <PQ_SYMBOL>  (2315) 
Phe_3OCHF2

>  <FULL_NAME>  (2315) 
(S)-2-amino-3-(3-(difluoromethoxy)phenyl)propanoic acid

>  <IUPAC_CONDENSED>  (2315) 
Phe(3-OCHF2)

>  <IUPAC>  (2315) 
(2S)-2-amino-3-(3-((difluoromethyl)oxy)phenyl)propanoic acid

>  <TYPE>  (2315) 
Backbone

>  <CLASS>  (2315) 
alpha

>  <ANALOG>  (2315) 
Tyr

>  <MOL_WT>  (2315) 
231.19799999999995

>  <LOGP>  (2315) 
1.2424000000000002

>  <TPSA>  (2315) 
72.55

>  <POPULARITY>  (2315) 
3.1

>  <PROTECTED>  (2315) 
TRUE

>  <SMILES>  (2315) 
N[C@@H](Cc1(cccc(OC(F)F)c1))C(=O)O

>  <INCHIKEY>  (2315) 
RJUZLLCGIHPZLB-QMMMGPOBSA-N

$$$$
4Pal_2CN_3F
     RDKit          2D

 15 15  0  0  0  0  0  0  0  0999 V2000
   -2.4994    1.6682    0.0000 N   0  0  0  0  0  0  0  0  0  0  0  0
   -2.5103    0.1683    0.0000 C   0  0  0  0  0  0  0  0  0  0  0  0
   -1.2168   -0.5912    0.0000 C   0  0  0  0  0  0  0  0  0  0  0  0
    0.0877    0.1494    0.0000 C   0  0  0  0  0  0  0  0  0  0  0  0
    0.0986    1.6493    0.0000 C   0  0  0  0  0  0  0  0  0  0  0  0
    1.4031    2.3899    0.0000 C   0  0  0  0  0  0  0  0  0  0  0  0
    2.6966    1.6304    0.0000 N   0  0  0  0  0  0  0  0  0  0  0  0
    2.6857    0.1305    0.0000 C   0  0  0  0  0  0  0  0  0  0  0  0
    3.9792   -0.6290    0.0000 C   0  0  0  0  0  0  0  0  0  0  0  0
    5.2728   -1.3884    0.0000 N   0  0  0  0  0  0  0  0  0  0  0  0
    1.3812   -0.6101    0.0000 C   0  0  0  0  0  0  0  0  0  0  0  0
    1.3703   -2.1100    0.0000 F   0  0  0  0  0  0  0  0  0  0  0  0
   -3.8148   -0.5723    0.0000 C   0  0  0  0  0  0  0  0  0  0  0  0
   -3.8257   -2.0722    0.0000 O   0  0  0  0  0  0  0  0  0  0  0  0
   -5.1083    0.1872    0.0000 O   0  0  0  0  0  0  0  0  0  0  0  0
  2  1  1  1
  2  3  1  0
  3  4  1  0
  4  5  1  0
  5  6  2  0
  6  7  1  0
  7  8  2  0
  8  9  1  0
  9 10  3  0
  8 11  1  0
 11 12  1  0
  2 13  1  0
 13 14  2  0
 13 15  1  0
 11  4  2  0
M  END
>  <rName>  (2316) 
4Pal_2CN_3F

>  <PQ_SYMBOL>  (2316) 
4Pal_2CN_3F

>  <FULL_NAME>  (2316) 
(S)-2-amino-3-(2-cyano-3-fluoropyridin-4-yl)propanoic acid

>  <IUPAC_CONDENSED>  (2316) 
4Pal(2-CN,3-F)

>  <IUPAC>  (2316) 
(2S)-2-amino-3-(3-fluoro-2-(nitrilomethyl)pyridin-4-yl)propanoic acid

>  <TYPE>  (2316) 
Backbone

>  <CLASS>  (2316) 
alpha

>  <ANALOG>  (2316) 
Phe

>  <MOL_WT>  (2316) 
209.17999999999995

>  <LOGP>  (2316) 
0.046779999999999766

>  <TPSA>  (2316) 
100

>  <POPULARITY>  (2316) 
2.2

>  <PROTECTED>  (2316) 
TRUE

>  <SMILES>  (2316) 
N[C@@H](Cc1(ccnc(C#N)c1F))C(=O)O

>  <INCHIKEY>  (2316) 
YDWQWMIIUIHIRH-LURJTMIESA-N

$$$$
Phe_EtOH
     RDKit          2D

 15 15  0  0  0  0  0  0  0  0999 V2000
   -2.5029    1.6750    0.0000 N   0  0  0  0  0  0  0  0  0  0  0  0
   -2.9013    0.2288    0.0000 C   0  0  0  0  0  0  0  0  0  0  0  0
   -1.8481   -0.8393    0.0000 C   0  0  0  0  0  0  0  0  0  0  0  0
   -0.3966   -0.4612    0.0000 C   0  0  0  0  0  0  0  0  0  0  0  0
    0.0019    0.9849    0.0000 C   0  0  0  0  0  0  0  0  0  0  0  0
    1.4534    1.3629    0.0000 C   0  0  0  0  0  0  0  0  0  0  0  0
    2.5066    0.2948    0.0000 C   0  0  0  0  0  0  0  0  0  0  0  0
    2.1082   -1.1513    0.0000 C   0  0  0  0  0  0  0  0  0  0  0  0
    0.6566   -1.5293    0.0000 C   0  0  0  0  0  0  0  0  0  0  0  0
    3.9582    0.6728    0.0000 C   0  0  0  0  0  0  0  0  0  0  0  0
    5.0114   -0.3953    0.0000 C   0  0  0  0  0  0  0  0  0  0  0  0
    6.4629   -0.0173    0.0000 O   0  0  0  0  0  0  0  0  0  0  0  0
   -4.3529   -0.1492    0.0000 C   0  0  0  0  0  0  0  0  0  0  0  0
   -4.7513   -1.5953    0.0000 O   0  0  0  0  0  0  0  0  0  0  0  0
   -5.4061    0.9189    0.0000 O   0  0  0  0  0  0  0  0  0  0  0  0
  2  1  1  1
  2  3  1  0
  3  4  1  0
  4  5  1  0
  5  6  2  0
  6  7  1  0
  7  8  2  0
  8  9  1  0
  7 10  1  0
 10 11  1  0
 11 12  1  0
  2 13  1  0
 13 14  2  0
 13 15  1  0
  9  4  2  0
M  END
>  <rName>  (2317) 
Phe_EtOH

>  <PQ_SYMBOL>  (2317) 
Phe_EtOH

>  <FULL_NAME>  (2317) 
(S)-2-amino-3-(4-(2-hydroxyethyl)phenyl)propanoic acid

>  <IUPAC_CONDENSED>  (2317) 
Phe(EtOH)

>  <IUPAC>  (2317) 
(2S)-2-amino-3-(4-(2-hydroxyethyl)phenyl)propanoic acid

>  <TYPE>  (2317) 
Backbone

>  <CLASS>  (2317) 
alpha

>  <ANALOG>  (2317) 
Phe

>  <MOL_WT>  (2317) 
209.24499999999995

>  <LOGP>  (2317) 
0.17579999999999996

>  <TPSA>  (2317) 
83.55

>  <POPULARITY>  (2317) 
5.7

>  <PROTECTED>  (2317) 
TRUE

>  <SMILES>  (2317) 
N[C@@H](Cc1(ccc(cc1)CCO))C(=O)O

>  <INCHIKEY>  (2317) 
PHTSEYXRINISNN-JTQLQIEISA-N

$$$$
Phe_2Cl_4OMe_5CO2H
     RDKit          2D

 18 18  0  0  0  0  0  0  0  0999 V2000
   -2.2377    1.6893    0.0000 N   0  0  0  0  0  0  0  0  0  0  0  0
   -2.8726    0.3303    0.0000 C   0  0  0  0  0  0  0  0  0  0  0  0
   -2.0132   -0.8990    0.0000 C   0  0  0  0  0  0  0  0  0  0  0  0
   -0.5188   -0.7694    0.0000 C   0  0  0  0  0  0  0  0  0  0  0  0
    0.1162    0.5896    0.0000 C   0  0  0  0  0  0  0  0  0  0  0  0
    1.6105    0.7192    0.0000 C   0  0  0  0  0  0  0  0  0  0  0  0
    2.2455    2.0782    0.0000 C   0  0  0  0  0  0  0  0  0  0  0  0
    1.3860    3.3076    0.0000 O   0  0  0  0  0  0  0  0  0  0  0  0
    3.7399    2.2078    0.0000 O   0  0  0  0  0  0  0  0  0  0  0  0
    2.4700   -0.5102    0.0000 C   0  0  0  0  0  0  0  0  0  0  0  0
    3.9644   -0.3805    0.0000 O   0  0  0  0  0  0  0  0  0  0  0  0
    4.8238   -1.6099    0.0000 C   0  0  0  0  0  0  0  0  0  0  0  0
    1.8351   -1.8691    0.0000 C   0  0  0  0  0  0  0  0  0  0  0  0
    0.3407   -1.9988    0.0000 C   0  0  0  0  0  0  0  0  0  0  0  0
   -0.2943   -3.3578    0.0000 Cl  0  0  0  0  0  0  0  0  0  0  0  0
   -4.3670    0.2007    0.0000 C   0  0  0  0  0  0  0  0  0  0  0  0
   -5.0020   -1.1583    0.0000 O   0  0  0  0  0  0  0  0  0  0  0  0
   -5.2265    1.4301    0.0000 O   0  0  0  0  0  0  0  0  0  0  0  0
  2  1  1  1
  2  3  1  0
  3  4  1  0
  4  5  2  0
  5  6  1  0
  6  7  1  0
  7  8  2  0
  7  9  1  0
  6 10  2  0
 10 11  1  0
 11 12  1  0
 10 13  1  0
 13 14  2  0
 14 15  1  0
  2 16  1  0
 16 17  2  0
 16 18  1  0
 14  4  1  0
M  END
>  <rName>  (2318) 
Phe_2Cl_4OMe_5CO2H

>  <PQ_SYMBOL>  (2318) 
Phe_2Cl_4OMe_5CO2H

>  <FULL_NAME>  (2318) 
(S)-5-(2-amino-2-carboxyethyl)-4-chloro-2-methoxybenzoic acid

>  <IUPAC_CONDENSED>  (2318) 
Phe(2-Cl,4-OMe,5-CO2H)

>  <IUPAC>  (2318) 
5-((2S)-2-amino-3-hydroxy-3-oxopropyl)-4-chloro-2-methoxybenzene-1-carboxylic acid

>  <TYPE>  (2318) 
Backbone

>  <CLASS>  (2318) 
alpha

>  <ANALOG>  (2318) 
Tyr

>  <MOL_WT>  (2318) 
273.67199999999997

>  <LOGP>  (2318) 
1.0011999999999999

>  <TPSA>  (2318) 
109.85000000000001

>  <POPULARITY>  (2318) 
2.2

>  <PROTECTED>  (2318) 
TRUE

>  <SMILES>  (2318) 
N[C@@H](Cc1(cc(C(=O)O)c(OC)cc1Cl))C(=O)O

>  <INCHIKEY>  (2318) 
ZFDFJXXGOLSGCZ-QMMMGPOBSA-N

$$$$
Phe_3Bz_4F_4Cl
     RDKit          2D

 22 23  0  0  0  0  0  0  0  0999 V2000
   -4.6735    0.6457    0.0000 N   0  0  0  0  0  0  0  0  0  0  0  0
   -4.0056   -0.6974    0.0000 C   0  0  0  0  0  0  0  0  0  0  0  0
   -2.5085   -0.7905    0.0000 C   0  0  0  0  0  0  0  0  0  0  0  0
   -1.6793    0.4594    0.0000 C   0  0  0  0  0  0  0  0  0  0  0  0
   -2.3472    1.8025    0.0000 C   0  0  0  0  0  0  0  0  0  0  0  0
   -1.5180    3.0525    0.0000 C   0  0  0  0  0  0  0  0  0  0  0  0
   -0.0208    2.9594    0.0000 C   0  0  0  0  0  0  0  0  0  0  0  0
    0.8084    4.2093    0.0000 Cl  0  0  0  0  0  0  0  0  0  0  0  0
    0.6471    1.6163    0.0000 C   0  0  0  0  0  0  0  0  0  0  0  0
   -0.1822    0.3663    0.0000 C   0  0  0  0  0  0  0  0  0  0  0  0
    2.1442    1.5231    0.0000 C   0  0  0  0  0  0  0  0  0  0  0  0
    2.9734    2.7731    0.0000 O   0  0  0  0  0  0  0  0  0  0  0  0
    2.8121    0.1800    0.0000 C   0  0  0  0  0  0  0  0  0  0  0  0
    1.9829   -1.0699    0.0000 C   0  0  0  0  0  0  0  0  0  0  0  0
    2.6508   -2.4130    0.0000 C   0  0  0  0  0  0  0  0  0  0  0  0
    4.1479   -2.5062    0.0000 C   0  0  0  0  0  0  0  0  0  0  0  0
    4.8158   -3.8493    0.0000 F   0  0  0  0  0  0  0  0  0  0  0  0
    4.9771   -1.2562    0.0000 C   0  0  0  0  0  0  0  0  0  0  0  0
    4.3092    0.0869    0.0000 C   0  0  0  0  0  0  0  0  0  0  0  0
   -4.8348   -1.9474    0.0000 C   0  0  0  0  0  0  0  0  0  0  0  0
   -4.1669   -3.2905    0.0000 O   0  0  0  0  0  0  0  0  0  0  0  0
   -6.3319   -1.8542    0.0000 O   0  0  0  0  0  0  0  0  0  0  0  0
  2  1  1  1
  2  3  1  0
  3  4  1  0
  4  5  1  0
  5  6  2  0
  6  7  1  0
  7  8  1  0
  7  9  2  0
  9 10  1  0
  9 11  1  0
 11 12  2  0
 11 13  1  0
 13 14  1  0
 14 15  2  0
 15 16  1  0
 16 17  1  0
 16 18  2  0
 18 19  1  0
  2 20  1  0
 20 21  2  0
 20 22  1  0
 10  4  2  0
 19 13  2  0
M  END
>  <rName>  (2319) 
Phe_3Bz_4F_4Cl

>  <PQ_SYMBOL>  (2319) 
Phe_3Bz_4F_4Cl

>  <FULL_NAME>  (2319) 
(S)-2-amino-3-(4-chloro-3-(4-fluorobenzoyl)phenyl)propanoic acid

>  <IUPAC_CONDENSED>  (2319) 
Phe(3-Bz(4-F),4-Cl)

>  <IUPAC>  (2319) 
(2S)-2-amino-3-(4-chloro-3-((4-fluorophenyl)carbonyl)phenyl)propanoic acid

>  <TYPE>  (2319) 
Backbone

>  <CLASS>  (2319) 
alpha

>  <ANALOG>  (2319) 
Phe

>  <MOL_WT>  (2319) 
321.735

>  <LOGP>  (2319) 
2.6645000000000003

>  <TPSA>  (2319) 
80.39

>  <POPULARITY>  (2319) 
2.2

>  <PROTECTED>  (2319) 
TRUE

>  <SMILES>  (2319) 
N[C@@H](Cc1(ccc(Cl)c(c1)C(=O)c2(ccc(F)cc2)))C(=O)O

>  <INCHIKEY>  (2319) 
VHJRPNYSPWHGHK-AWEZNQCLSA-N

$$$$
Phe_2CO2H_6NO2
     RDKit          2D

 18 18  0  0  0  0  0  0  0  0999 V2000
    2.1301    0.5685    0.0000 N   0  0  0  0  0  0  0  0  0  0  0  0
    1.8552   -0.3765    0.0000 C   0  0  0  0  0  0  0  0  0  0  0  0
    0.4528   -0.9088    0.0000 C   0  0  0  0  0  0  0  0  0  0  0  0
   -0.7093    0.0395    0.0000 C   0  0  0  0  0  0  0  0  0  0  0  0
   -2.1117   -0.4928    0.0000 C   0  0  0  0  0  0  0  0  0  0  0  0
   -3.2739    0.4556    0.0000 C   0  0  0  0  0  0  0  0  0  0  0  0
   -3.0337    1.9362    0.0000 C   0  0  0  0  0  0  0  0  0  0  0  0
   -1.6313    2.4685    0.0000 C   0  0  0  0  0  0  0  0  0  0  0  0
   -0.4691    1.5202    0.0000 C   0  0  0  0  0  0  0  0  0  0  0  0
    0.9332    2.0525    0.0000 N   0  0  0  0  0  0  0  0  0  0  0  0
    1.7659    1.5278    0.0000 O   0  0  0  0  0  0  0  0  0  0  0  0
    1.1735    3.5331    0.0000 O   0  0  0  0  0  0  0  0  0  0  0  0
   -2.3519   -1.9734    0.0000 C   0  0  0  0  0  0  0  0  0  0  0  0
   -3.7543   -2.5057    0.0000 O   0  0  0  0  0  0  0  0  0  0  0  0
   -1.1897   -2.9218    0.0000 O   0  0  0  0  0  0  0  0  0  0  0  0
    3.0174   -1.3249    0.0000 C   0  0  0  0  0  0  0  0  0  0  0  0
    2.7772   -2.8055    0.0000 O   0  0  0  0  0  0  0  0  0  0  0  0
    4.4198   -0.7926    0.0000 O   0  0  0  0  0  0  0  0  0  0  0  0
  2  1  1  6
  2  3  1  0
  3  4  1  0
  4  5  2  0
  5  6  1  0
  6  7  2  0
  7  8  1  0
  8  9  2  0
  9 10  1  0
 10 11  2  0
 10 12  1  0
  5 13  1  0
 13 14  2  0
 13 15  1  0
  2 16  1  0
 16 17  2  0
 16 18  1  0
  9  4  1  0
M  CHG  2  10   1  12  -1
M  END
>  <rName>  (2320) 
Phe_2CO2H_6NO2

>  <PQ_SYMBOL>  (2320) 
Phe_2CO2H_6NO2

>  <FULL_NAME>  (2320) 
(S)-2-(2-amino-2-carboxyethyl)-3-nitrobenzoic acid

>  <IUPAC_CONDENSED>  (2320) 
Phe(2-CO2H,6-NO2)

>  <IUPAC>  (2320) 
2-((2S)-2-amino-3-hydroxy-3-oxopropyl)-3-nitrobenzene-1-carboxylic acid

>  <TYPE>  (2320) 
Backbone

>  <CLASS>  (2320) 
alpha

>  <ANALOG>  (2320) 
Phe

>  <MOL_WT>  (2320) 
254.19799999999995

>  <LOGP>  (2320) 
0.24740000000000018

>  <TPSA>  (2320) 
143.76

>  <POPULARITY>  (2320) 
2.3

>  <PROTECTED>  (2320) 
TRUE

>  <SMILES>  (2320) 
N[C@@H](Cc1(c(cccc1[N+](=O)[O-])C(=O)O))C(=O)O

>  <INCHIKEY>  (2320) 
WSHAPULJIQNASB-ZETCQYMHSA-N

$$$$
Phe_42carboxyethyl
     RDKit          2D

 17 17  0  0  0  0  0  0  0  0999 V2000
   -3.3399    1.6723    0.0000 N   0  0  0  0  0  0  0  0  0  0  0  0
   -3.7459    0.2283    0.0000 C   0  0  0  0  0  0  0  0  0  0  0  0
   -2.6984   -0.8453    0.0000 C   0  0  0  0  0  0  0  0  0  0  0  0
   -1.2448   -0.4749    0.0000 C   0  0  0  0  0  0  0  0  0  0  0  0
   -0.8388    0.9691    0.0000 C   0  0  0  0  0  0  0  0  0  0  0  0
    0.6147    1.3395    0.0000 C   0  0  0  0  0  0  0  0  0  0  0  0
    1.6623    0.2659    0.0000 C   0  0  0  0  0  0  0  0  0  0  0  0
    1.2563   -1.1781    0.0000 C   0  0  0  0  0  0  0  0  0  0  0  0
   -0.1972   -1.5485    0.0000 C   0  0  0  0  0  0  0  0  0  0  0  0
    3.1158    0.6363    0.0000 C   0  0  0  0  0  0  0  0  0  0  0  0
    4.1634   -0.4373    0.0000 C   0  0  0  0  0  0  0  0  0  0  0  0
    5.6169   -0.0669    0.0000 C   0  0  0  0  0  0  0  0  0  0  0  0
    6.0229    1.3771    0.0000 O   0  0  0  0  0  0  0  0  0  0  0  0
    6.6645   -1.1405    0.0000 O   0  0  0  0  0  0  0  0  0  0  0  0
   -5.1995   -0.1421    0.0000 C   0  0  0  0  0  0  0  0  0  0  0  0
   -5.6054   -1.5861    0.0000 O   0  0  0  0  0  0  0  0  0  0  0  0
   -6.2470    0.9315    0.0000 O   0  0  0  0  0  0  0  0  0  0  0  0
  2  1  1  1
  2  3  1  0
  3  4  1  0
  4  5  1  0
  5  6  2  0
  6  7  1  0
  7  8  2  0
  8  9  1  0
  7 10  1  0
 10 11  1  0
 11 12  1  0
 12 13  2  0
 12 14  1  0
  2 15  1  0
 15 16  2  0
 15 17  1  0
  9  4  2  0
M  END
>  <rName>  (2321) 
Phe_42carboxyethyl

>  <PQ_SYMBOL>  (2321) 
Phe_42carboxyethyl

>  <FULL_NAME>  (2321) 
(S)-2-amino-3-(4-(2-carboxyethyl)phenyl)propanoic acid

>  <IUPAC_CONDENSED>  (2321) 
Phe(4-2-carboxyethyl)

>  <IUPAC>  (2321) 
(2S)-2-amino-3-(4-(3-hydroxy-3-oxopropyl)phenyl)propanoic acid

>  <TYPE>  (2321) 
Backbone

>  <CLASS>  (2321) 
alpha

>  <ANALOG>  (2321) 
Phe

>  <MOL_WT>  (2321) 
237.25499999999994

>  <LOGP>  (2321) 
0.6582

>  <TPSA>  (2321) 
100.62000000000002

>  <POPULARITY>  (2321) 
3.9

>  <PROTECTED>  (2321) 
TRUE

>  <SMILES>  (2321) 
N[C@@H](Cc1(ccc(cc1)CCC(=O)O))C(=O)O

>  <INCHIKEY>  (2321) 
VOYPPTPIZRETCC-JTQLQIEISA-N

$$$$
Phe_2Me_5NO2
     RDKit          2D

 16 16  0  0  0  0  0  0  0  0999 V2000
    1.4458   -1.7915    0.0000 N   0  0  0  0  0  0  0  0  0  0  0  0
    2.2696   -0.5380    0.0000 C   0  0  0  0  0  0  0  0  0  0  0  0
    1.5959    0.8022    0.0000 C   0  0  0  0  0  0  0  0  0  0  0  0
    0.0984    0.8889    0.0000 C   0  0  0  0  0  0  0  0  0  0  0  0
   -0.7254   -0.3646    0.0000 C   0  0  0  0  0  0  0  0  0  0  0  0
   -2.2229   -0.2780    0.0000 C   0  0  0  0  0  0  0  0  0  0  0  0
   -2.8966    1.0622    0.0000 C   0  0  0  0  0  0  0  0  0  0  0  0
   -2.0728    2.3158    0.0000 C   0  0  0  0  0  0  0  0  0  0  0  0
   -0.5753    2.2291    0.0000 C   0  0  0  0  0  0  0  0  0  0  0  0
    0.2485    3.4826    0.0000 C   0  0  0  0  0  0  0  0  0  0  0  0
   -3.0467   -1.5315    0.0000 N   0  0  0  0  0  0  0  0  0  0  0  0
   -2.3730   -2.8717    0.0000 O   0  0  0  0  0  0  0  0  0  0  0  0
   -4.5442   -1.4448    0.0000 O   0  0  0  0  0  0  0  0  0  0  0  0
    3.7671   -0.6247    0.0000 C   0  0  0  0  0  0  0  0  0  0  0  0
    4.5909    0.6289    0.0000 O   0  0  0  0  0  0  0  0  0  0  0  0
    4.4408   -1.9649    0.0000 O   0  0  0  0  0  0  0  0  0  0  0  0
  2  1  1  1
  2  3  1  0
  3  4  1  0
  4  5  1  0
  5  6  2  0
  6  7  1  0
  7  8  2  0
  8  9  1  0
  9 10  1  0
  6 11  1  0
 11 12  2  0
 11 13  1  0
  2 14  1  0
 14 15  2  0
 14 16  1  0
  9  4  2  0
M  CHG  2  11   1  13  -1
M  END
>  <rName>  (2322) 
Phe_2Me_5NO2

>  <PQ_SYMBOL>  (2322) 
Phe_2Me_5NO2

>  <FULL_NAME>  (2322) 
(S)-2-amino-3-(2-methyl-5-nitrophenyl)propanoic acid

>  <IUPAC_CONDENSED>  (2322) 
Phe(2-Me,5-NO2)

>  <IUPAC>  (2322) 
(2S)-2-amino-3-(2-methyl-5-nitrophenyl)propanoic acid

>  <TYPE>  (2322) 
Backbone

>  <CLASS>  (2322) 
alpha

>  <ANALOG>  (2322) 
Phe

>  <MOL_WT>  (2322) 
224.21599999999995

>  <LOGP>  (2322) 
0.85762

>  <TPSA>  (2322) 
106.46

>  <POPULARITY>  (2322) 
3.3

>  <PROTECTED>  (2322) 
TRUE

>  <SMILES>  (2322) 
N[C@@H](Cc1(cc(ccc1C)[N+](=O)[O-]))C(=O)O

>  <INCHIKEY>  (2322) 
VEIPSQLVFOAEBD-VIFPVBQESA-N

$$$$
Phe_2Cl_4CO2H
     RDKit          2D

 16 16  0  0  0  0  0  0  0  0999 V2000
   -2.2742    1.8739    0.0000 N   0  0  0  0  0  0  0  0  0  0  0  0
   -2.7626    0.4557    0.0000 C   0  0  0  0  0  0  0  0  0  0  0  0
   -1.7786   -0.6765    0.0000 C   0  0  0  0  0  0  0  0  0  0  0  0
   -0.3062   -0.3903    0.0000 C   0  0  0  0  0  0  0  0  0  0  0  0
    0.1823    1.0279    0.0000 C   0  0  0  0  0  0  0  0  0  0  0  0
    1.6547    1.3140    0.0000 C   0  0  0  0  0  0  0  0  0  0  0  0
    2.6387    0.1819    0.0000 C   0  0  0  0  0  0  0  0  0  0  0  0
    2.1503   -1.2363    0.0000 C   0  0  0  0  0  0  0  0  0  0  0  0
    0.6779   -1.5225    0.0000 C   0  0  0  0  0  0  0  0  0  0  0  0
    0.1894   -2.9407    0.0000 Cl  0  0  0  0  0  0  0  0  0  0  0  0
    4.1112    0.4680    0.0000 C   0  0  0  0  0  0  0  0  0  0  0  0
    4.5996    1.8863    0.0000 O   0  0  0  0  0  0  0  0  0  0  0  0
    5.0952   -0.6641    0.0000 O   0  0  0  0  0  0  0  0  0  0  0  0
   -4.2351    0.1695    0.0000 C   0  0  0  0  0  0  0  0  0  0  0  0
   -4.7235   -1.2487    0.0000 O   0  0  0  0  0  0  0  0  0  0  0  0
   -5.2191    1.3017    0.0000 O   0  0  0  0  0  0  0  0  0  0  0  0
  2  1  1  1
  2  3  1  0
  3  4  1  0
  4  5  1  0
  5  6  2  0
  6  7  1  0
  7  8  2  0
  8  9  1  0
  9 10  1  0
  7 11  1  0
 11 12  2  0
 11 13  1  0
  2 14  1  0
 14 15  2  0
 14 16  1  0
  9  4  2  0
M  END
>  <rName>  (2323) 
Phe_2Cl_4CO2H

>  <PQ_SYMBOL>  (2323) 
Phe_2Cl_4CO2H

>  <FULL_NAME>  (2323) 
(S)-4-(2-amino-2-carboxyethyl)-3-chlorobenzoic acid

>  <IUPAC_CONDENSED>  (2323) 
Phe(2-Cl,4-CO2H)

>  <IUPAC>  (2323) 
4-((2S)-2-amino-3-hydroxy-3-oxopropyl)-3-chlorobenzene-1-carboxylic acid

>  <TYPE>  (2323) 
Backbone

>  <CLASS>  (2323) 
alpha

>  <ANALOG>  (2323) 
Phe

>  <MOL_WT>  (2323) 
243.64599999999996

>  <LOGP>  (2323) 
0.9926000000000001

>  <TPSA>  (2323) 
100.62000000000002

>  <POPULARITY>  (2323) 
2.6

>  <PROTECTED>  (2323) 
TRUE

>  <SMILES>  (2323) 
N[C@@H](Cc1(ccc(cc1Cl)C(=O)O))C(=O)O

>  <INCHIKEY>  (2323) 
IAQGGQXCXPHEAS-QMMMGPOBSA-N

$$$$
D-Ala_22diMe1_3benzodioxolyl
     RDKit          2D

 17 18  0  0  0  0  0  0  0  0999 V2000
   -3.1695    1.6432    0.0000 N   0  0  0  0  0  0  0  0  0  0  0  0
   -3.3954    0.1603    0.0000 C   0  0  0  0  0  0  0  0  0  0  0  0
   -2.2241   -0.7768    0.0000 C   0  0  0  0  0  0  0  0  0  0  0  0
   -0.8270   -0.2310    0.0000 C   0  0  0  0  0  0  0  0  0  0  0  0
   -0.6010    1.2519    0.0000 C   0  0  0  0  0  0  0  0  0  0  0  0
    0.7962    1.7976    0.0000 C   0  0  0  0  0  0  0  0  0  0  0  0
    1.9674    0.8605    0.0000 C   0  0  0  0  0  0  0  0  0  0  0  0
    3.4475    1.1039    0.0000 O   0  0  0  0  0  0  0  0  0  0  0  0
    4.1364   -0.2286    0.0000 C   0  0  0  0  0  0  0  0  0  0  0  0
    3.0820   -1.2955    0.0000 O   0  0  0  0  0  0  0  0  0  0  0  0
    1.7415   -0.6223    0.0000 C   0  0  0  0  0  0  0  0  0  0  0  0
    0.3443   -1.1681    0.0000 C   0  0  0  0  0  0  0  0  0  0  0  0
    5.3895    0.5958    0.0000 C   0  0  0  0  0  0  0  0  0  0  0  0
    5.0872   -1.3887    0.0000 C   0  0  0  0  0  0  0  0  0  0  0  0
   -4.7926   -0.3855    0.0000 C   0  0  0  0  0  0  0  0  0  0  0  0
   -5.0185   -1.8684    0.0000 O   0  0  0  0  0  0  0  0  0  0  0  0
   -5.9638    0.5516    0.0000 O   0  0  0  0  0  0  0  0  0  0  0  0
  2  1  1  6
  2  3  1  0
  3  4  1  0
  4  5  1  0
  5  6  2  0
  6  7  1  0
  7  8  1  0
  8  9  1  0
  9 10  1  0
 10 11  1  0
 11 12  1  0
  9 13  1  0
  9 14  1  0
  2 15  1  0
 15 16  2  0
 15 17  1  0
 11  7  2  0
 12  4  2  0
M  END
>  <rName>  (2324) 
D-Ala_22diMe1_3benzodioxolyl

>  <PQ_SYMBOL>  (2324) 
D-Ala_22diMe1_3benzodioxolyl

>  <FULL_NAME>  (2324) 
(R)-2-amino-3-(2,2-dimethylbenzo[d][1,3]dioxol-5-yl)propanoic acid

>  <IUPAC_CONDENSED>  (2324) 
D-Ala(2,2-diMe-1,3-benzodioxolyl)

>  <IUPAC>  (2324) 
(2R)-2-amino-3-(8,8-dimethyl-7,9-dioxabicyclo[4.3.0]nona-1,3,5-trien-3-yl)propanoic acid

>  <TYPE>  (2324) 
Backbone

>  <CLASS>  (2324) 
alpha

>  <ANALOG>  (2324) 
Tyr

>  <MOL_WT>  (2324) 
237.25499999999997

>  <LOGP>  (2324) 
1.1482999999999999

>  <TPSA>  (2324) 
81.78

>  <POPULARITY>  (2324) 
2.9

>  <PROTECTED>  (2324) 
TRUE

>  <SMILES>  (2324) 
N[C@H](Cc2(ccc1(OC(Oc1c2)(C)C)))C(=O)O

>  <INCHIKEY>  (2324) 
PFPPGLZXDDFWGF-MRVPVSSYSA-N

$$$$
3Thi_Me_Me
     RDKit          2D

 13 13  0  0  0  0  0  0  0  0999 V2000
   -1.4768    1.5283    0.0000 N   0  0  0  0  0  0  0  0  0  0  0  0
   -1.7710    0.0575    0.0000 C   0  0  0  0  0  0  0  0  0  0  0  0
   -0.6443   -0.9328    0.0000 C   0  0  0  0  0  0  0  0  0  0  0  0
    0.7766   -0.4521    0.0000 C   0  0  0  0  0  0  0  0  0  0  0  0
    2.0006   -1.3192    0.0000 C   0  0  0  0  0  0  0  0  0  0  0  0
    3.2035   -0.4230    0.0000 C   0  0  0  0  0  0  0  0  0  0  0  0
    4.6355   -0.8694    0.0000 C   0  0  0  0  0  0  0  0  0  0  0  0
    2.7229    0.9979    0.0000 S   0  0  0  0  0  0  0  0  0  0  0  0
    1.2230    0.9799    0.0000 C   0  0  0  0  0  0  0  0  0  0  0  0
    0.3268    2.1828    0.0000 C   0  0  0  0  0  0  0  0  0  0  0  0
   -3.1919   -0.4231    0.0000 C   0  0  0  0  0  0  0  0  0  0  0  0
   -3.4862   -1.8940    0.0000 O   0  0  0  0  0  0  0  0  0  0  0  0
   -4.3186    0.5671    0.0000 O   0  0  0  0  0  0  0  0  0  0  0  0
  2  1  1  1
  2  3  1  0
  3  4  1  0
  4  5  1  0
  5  6  2  0
  6  7  1  0
  6  8  1  0
  8  9  1  0
  9 10  1  0
  2 11  1  0
 11 12  2  0
 11 13  1  0
  9  4  2  0
M  END
>  <rName>  (2325) 
3Thi_Me_Me

>  <PQ_SYMBOL>  (2325) 
3Thi_Me_Me

>  <FULL_NAME>  (2325) 
(S)-2-amino-3-(2,5-dimethylthiophen-3-yl)propanoic acid

>  <IUPAC_CONDENSED>  (2325) 
3Thi(Me,Me)

>  <IUPAC>  (2325) 
(2S)-2-amino-3-(2,5-dimethylthiophen-3-yl)propanoic acid

>  <TYPE>  (2325) 
Backbone

>  <CLASS>  (2325) 
alpha

>  <ANALOG>  (2325) 
Phe

>  <MOL_WT>  (2325) 
199.27499999999998

>  <LOGP>  (2325) 
1.3193400000000002

>  <TPSA>  (2325) 
63.32000000000001

>  <POPULARITY>  (2325) 
3

>  <PROTECTED>  (2325) 
TRUE

>  <SMILES>  (2325) 
N[C@@H](Cc1(cc(C)sc1C))C(=O)O

>  <INCHIKEY>  (2325) 
GUBJAMNHRNIPSO-QMMMGPOBSA-N

$$$$
3Pal_6morpholino
     RDKit          2D

 18 19  0  0  0  0  0  0  0  0999 V2000
   -3.2769    1.7174    0.0000 N   0  0  0  0  0  0  0  0  0  0  0  0
   -3.8349    0.3251    0.0000 C   0  0  0  0  0  0  0  0  0  0  0  0
   -2.9082   -0.8544    0.0000 C   0  0  0  0  0  0  0  0  0  0  0  0
   -1.4234   -0.6415    0.0000 C   0  0  0  0  0  0  0  0  0  0  0  0
   -0.8653    0.7508    0.0000 C   0  0  0  0  0  0  0  0  0  0  0  0
    0.6195    0.9637    0.0000 C   0  0  0  0  0  0  0  0  0  0  0  0
    1.5463   -0.2158    0.0000 C   0  0  0  0  0  0  0  0  0  0  0  0
    0.9882   -1.6081    0.0000 N   0  0  0  0  0  0  0  0  0  0  0  0
   -0.4966   -1.8210    0.0000 C   0  0  0  0  0  0  0  0  0  0  0  0
    3.0311   -0.0029    0.0000 N   0  0  0  0  0  0  0  0  0  0  0  0
    3.9578   -1.1824    0.0000 C   0  0  0  0  0  0  0  0  0  0  0  0
    5.4427   -0.9695    0.0000 C   0  0  0  0  0  0  0  0  0  0  0  0
    6.0007    0.4228    0.0000 O   0  0  0  0  0  0  0  0  0  0  0  0
    5.0740    1.6023    0.0000 C   0  0  0  0  0  0  0  0  0  0  0  0
    3.5891    1.3894    0.0000 C   0  0  0  0  0  0  0  0  0  0  0  0
   -5.3198    0.1122    0.0000 C   0  0  0  0  0  0  0  0  0  0  0  0
   -5.8778   -1.2801    0.0000 O   0  0  0  0  0  0  0  0  0  0  0  0
   -6.2465    1.2917    0.0000 O   0  0  0  0  0  0  0  0  0  0  0  0
  2  1  1  1
  2  3  1  0
  3  4  1  0
  4  5  1  0
  5  6  2  0
  6  7  1  0
  7  8  2  0
  8  9  1  0
  7 10  1  0
 10 11  1  0
 11 12  1  0
 12 13  1  0
 13 14  1  0
 14 15  1  0
  2 16  1  0
 16 17  2  0
 16 18  1  0
  9  4  2  0
 15 10  1  0
M  END
>  <rName>  (2326) 
3Pal_6morpholino

>  <PQ_SYMBOL>  (2326) 
3Pal_6morpholino

>  <FULL_NAME>  (2326) 
(S)-2-amino-3-(6-morpholinopyridin-3-yl)propanoic acid

>  <IUPAC_CONDENSED>  (2326) 
3Pal(6-morpholino)

>  <IUPAC>  (2326) 
(2S)-2-amino-3-(6-(morpholin-4-yl)pyridin-3-yl)propanoic acid

>  <TYPE>  (2326) 
Backbone

>  <CLASS>  (2326) 
alpha

>  <ANALOG>  (2326) 
Phe

>  <MOL_WT>  (2326) 
251.28599999999992

>  <LOGP>  (2326) 
-0.1274

>  <TPSA>  (2326) 
88.67999999999999

>  <POPULARITY>  (2326) 
2.6

>  <PROTECTED>  (2326) 
TRUE

>  <SMILES>  (2326) 
N[C@@H](Cc1(ccc(nc1)N2(CCOCC2)))C(=O)O

>  <INCHIKEY>  (2326) 
IZNDNDRZFIOQTQ-JTQLQIEISA-N

$$$$
Phe_2NH2_5F
     RDKit          2D

 14 14  0  0  0  0  0  0  0  0999 V2000
   -1.4552    1.7882    0.0000 N   0  0  0  0  0  0  0  0  0  0  0  0
   -1.9325    0.3661    0.0000 C   0  0  0  0  0  0  0  0  0  0  0  0
   -0.9397   -0.7583    0.0000 C   0  0  0  0  0  0  0  0  0  0  0  0
    0.5305   -0.4606    0.0000 C   0  0  0  0  0  0  0  0  0  0  0  0
    1.0078    0.9614    0.0000 C   0  0  0  0  0  0  0  0  0  0  0  0
    2.4780    1.2591    0.0000 C   0  0  0  0  0  0  0  0  0  0  0  0
    2.9553    2.6811    0.0000 F   0  0  0  0  0  0  0  0  0  0  0  0
    3.4709    0.1347    0.0000 C   0  0  0  0  0  0  0  0  0  0  0  0
    2.9935   -1.2874    0.0000 C   0  0  0  0  0  0  0  0  0  0  0  0
    1.5234   -1.5850    0.0000 C   0  0  0  0  0  0  0  0  0  0  0  0
    1.0461   -3.0070    0.0000 N   0  0  0  0  0  0  0  0  0  0  0  0
   -3.4027    0.0685    0.0000 C   0  0  0  0  0  0  0  0  0  0  0  0
   -3.8800   -1.3536    0.0000 O   0  0  0  0  0  0  0  0  0  0  0  0
   -4.3955    1.1929    0.0000 O   0  0  0  0  0  0  0  0  0  0  0  0
  2  1  1  1
  2  3  1  0
  3  4  1  0
  4  5  1  0
  5  6  2  0
  6  7  1  0
  6  8  1  0
  8  9  2  0
  9 10  1  0
 10 11  1  0
  2 12  1  0
 12 13  2  0
 12 14  1  0
 10  4  2  0
M  END
>  <rName>  (2327) 
Phe_2NH2_5F

>  <PQ_SYMBOL>  (2327) 
Phe_2NH2_5F

>  <FULL_NAME>  (2327) 
(S)-2-amino-3-(2-amino-5-fluorophenyl)propanoic acid

>  <IUPAC_CONDENSED>  (2327) 
Phe(2-NH2,5-F)

>  <IUPAC>  (2327) 
(2S)-2-amino-3-(2-amino-5-fluorophenyl)propanoic acid

>  <TYPE>  (2327) 
Backbone

>  <CLASS>  (2327) 
alpha

>  <ANALOG>  (2327) 
Phe

>  <MOL_WT>  (2327) 
198.19699999999997

>  <LOGP>  (2327) 
0.3622999999999999

>  <TPSA>  (2327) 
89.34

>  <POPULARITY>  (2327) 
3.1

>  <PROTECTED>  (2327) 
TRUE

>  <SMILES>  (2327) 
N[C@@H](Cc1(cc(F)ccc1N))C(=O)O

>  <INCHIKEY>  (2327) 
QBYSIDZVTCDJSV-QMMMGPOBSA-N

$$$$
Phe_2CF3_4NH2
     RDKit          2D

 17 17  0  0  0  0  0  0  0  0999 V2000
   -2.1777    2.1611    0.0000 N   0  0  0  0  0  0  0  0  0  0  0  0
   -2.3768    0.6744    0.0000 C   0  0  0  0  0  0  0  0  0  0  0  0
   -1.1888   -0.2414    0.0000 C   0  0  0  0  0  0  0  0  0  0  0  0
    0.1983    0.3295    0.0000 C   0  0  0  0  0  0  0  0  0  0  0  0
    0.3974    1.8163    0.0000 C   0  0  0  0  0  0  0  0  0  0  0  0
    1.7845    2.3872    0.0000 C   0  0  0  0  0  0  0  0  0  0  0  0
    2.9725    1.4714    0.0000 C   0  0  0  0  0  0  0  0  0  0  0  0
    4.3596    2.0423    0.0000 N   0  0  0  0  0  0  0  0  0  0  0  0
    2.7734   -0.0153    0.0000 C   0  0  0  0  0  0  0  0  0  0  0  0
    1.3863   -0.5863    0.0000 C   0  0  0  0  0  0  0  0  0  0  0  0
    1.1872   -2.0730    0.0000 C   0  0  0  0  0  0  0  0  0  0  0  0
    0.9881   -3.5597    0.0000 F   0  0  0  0  0  0  0  0  0  0  0  0
    2.6739   -2.2721    0.0000 F   0  0  0  0  0  0  0  0  0  0  0  0
   -0.2995   -1.8739    0.0000 F   0  0  0  0  0  0  0  0  0  0  0  0
   -3.7639    0.1035    0.0000 C   0  0  0  0  0  0  0  0  0  0  0  0
   -3.9630   -1.3833    0.0000 O   0  0  0  0  0  0  0  0  0  0  0  0
   -4.9518    1.0193    0.0000 O   0  0  0  0  0  0  0  0  0  0  0  0
  2  1  1  1
  2  3  1  0
  3  4  1  0
  4  5  1  0
  5  6  2  0
  6  7  1  0
  7  8  1  0
  7  9  2  0
  9 10  1  0
 10 11  1  0
 11 12  1  0
 11 13  1  0
 11 14  1  0
  2 15  1  0
 15 16  2  0
 15 17  1  0
 10  4  2  0
M  END
>  <rName>  (2328) 
Phe_2CF3_4NH2

>  <PQ_SYMBOL>  (2328) 
Phe_2CF3_4NH2

>  <FULL_NAME>  (2328) 
(S)-2-amino-3-(4-amino-2-(trifluoromethyl)phenyl)propanoic acid

>  <IUPAC_CONDENSED>  (2328) 
Phe(2-CF3,4-NH2)

>  <IUPAC>  (2328) 
(2S)-2-amino-3-(4-amino-2-(trifluoromethyl)phenyl)propanoic acid

>  <TYPE>  (2328) 
Backbone

>  <CLASS>  (2328) 
alpha

>  <ANALOG>  (2328) 
Phe

>  <MOL_WT>  (2328) 
248.20399999999995

>  <LOGP>  (2328) 
1.242

>  <TPSA>  (2328) 
89.34

>  <POPULARITY>  (2328) 
2.7

>  <PROTECTED>  (2328) 
TRUE

>  <SMILES>  (2328) 
N[C@@H](Cc1(ccc(N)cc1C(F)(F)F))C(=O)O

>  <INCHIKEY>  (2328) 
BGDVXUHUIBQSBF-QMMMGPOBSA-N

$$$$
Phe_2Me_4NH2
     RDKit          2D

 14 14  0  0  0  0  0  0  0  0999 V2000
   -1.7174    1.8436    0.0000 N   0  0  0  0  0  0  0  0  0  0  0  0
   -2.1036    0.3942    0.0000 C   0  0  0  0  0  0  0  0  0  0  0  0
   -1.0414   -0.6650    0.0000 C   0  0  0  0  0  0  0  0  0  0  0  0
    0.4069   -0.2747    0.0000 C   0  0  0  0  0  0  0  0  0  0  0  0
    0.7931    1.1747    0.0000 C   0  0  0  0  0  0  0  0  0  0  0  0
    2.2415    1.5649    0.0000 C   0  0  0  0  0  0  0  0  0  0  0  0
    3.3036    0.5057    0.0000 C   0  0  0  0  0  0  0  0  0  0  0  0
    4.7520    0.8960    0.0000 N   0  0  0  0  0  0  0  0  0  0  0  0
    2.9174   -0.9437    0.0000 C   0  0  0  0  0  0  0  0  0  0  0  0
    1.4691   -1.3339    0.0000 C   0  0  0  0  0  0  0  0  0  0  0  0
    1.0829   -2.7834    0.0000 C   0  0  0  0  0  0  0  0  0  0  0  0
   -3.5519    0.0039    0.0000 C   0  0  0  0  0  0  0  0  0  0  0  0
   -3.9381   -1.4455    0.0000 O   0  0  0  0  0  0  0  0  0  0  0  0
   -4.6140    1.0631    0.0000 O   0  0  0  0  0  0  0  0  0  0  0  0
  2  1  1  1
  2  3  1  0
  3  4  1  0
  4  5  1  0
  5  6  2  0
  6  7  1  0
  7  8  1  0
  7  9  2  0
  9 10  1  0
 10 11  1  0
  2 12  1  0
 12 13  2  0
 12 14  1  0
 10  4  2  0
M  END
>  <rName>  (2329) 
Phe_2Me_4NH2

>  <PQ_SYMBOL>  (2329) 
Phe_2Me_4NH2

>  <FULL_NAME>  (2329) 
(S)-2-amino-3-(4-amino-2-methylphenyl)propanoic acid

>  <IUPAC_CONDENSED>  (2329) 
Phe(2-Me,4-NH2)

>  <IUPAC>  (2329) 
(2S)-2-amino-3-(4-amino-2-methylphenyl)propanoic acid

>  <TYPE>  (2329) 
Backbone

>  <CLASS>  (2329) 
alpha

>  <ANALOG>  (2329) 
Phe

>  <MOL_WT>  (2329) 
194.23399999999998

>  <LOGP>  (2329) 
0.5316199999999995

>  <TPSA>  (2329) 
89.34

>  <POPULARITY>  (2329) 
6.3

>  <PROTECTED>  (2329) 
TRUE

>  <SMILES>  (2329) 
N[C@@H](Cc1(ccc(N)cc1C))C(=O)O

>  <INCHIKEY>  (2329) 
NTJIKYSOUNWZSL-VIFPVBQESA-N

$$$$
Phe_2NH2_4CF3
     RDKit          2D

 17 17  0  0  0  0  0  0  0  0999 V2000
   -2.4937    1.8764    0.0000 N   0  0  0  0  0  0  0  0  0  0  0  0
   -2.9991    0.4641    0.0000 C   0  0  0  0  0  0  0  0  0  0  0  0
   -2.0288   -0.6797    0.0000 C   0  0  0  0  0  0  0  0  0  0  0  0
   -0.5530   -0.4113    0.0000 C   0  0  0  0  0  0  0  0  0  0  0  0
   -0.0476    1.0010    0.0000 C   0  0  0  0  0  0  0  0  0  0  0  0
    1.4282    1.2695    0.0000 C   0  0  0  0  0  0  0  0  0  0  0  0
    2.3986    0.1256    0.0000 C   0  0  0  0  0  0  0  0  0  0  0  0
    1.8932   -1.2867    0.0000 C   0  0  0  0  0  0  0  0  0  0  0  0
    0.4174   -1.5551    0.0000 C   0  0  0  0  0  0  0  0  0  0  0  0
   -0.0880   -2.9674    0.0000 N   0  0  0  0  0  0  0  0  0  0  0  0
    3.8744    0.3941    0.0000 C   0  0  0  0  0  0  0  0  0  0  0  0
    5.3502    0.6625    0.0000 F   0  0  0  0  0  0  0  0  0  0  0  0
    4.1428   -1.0817    0.0000 F   0  0  0  0  0  0  0  0  0  0  0  0
    3.6059    1.8699    0.0000 F   0  0  0  0  0  0  0  0  0  0  0  0
   -4.4749    0.1957    0.0000 C   0  0  0  0  0  0  0  0  0  0  0  0
   -4.9803   -1.2166    0.0000 O   0  0  0  0  0  0  0  0  0  0  0  0
   -5.4453    1.3395    0.0000 O   0  0  0  0  0  0  0  0  0  0  0  0
  2  1  1  1
  2  3  1  0
  3  4  1  0
  4  5  1  0
  5  6  2  0
  6  7  1  0
  7  8  2  0
  8  9  1  0
  9 10  1  0
  7 11  1  0
 11 12  1  0
 11 13  1  0
 11 14  1  0
  2 15  1  0
 15 16  2  0
 15 17  1  0
  9  4  2  0
M  END
>  <rName>  (2330) 
Phe_2NH2_4CF3

>  <PQ_SYMBOL>  (2330) 
Phe_2NH2_4CF3

>  <FULL_NAME>  (2330) 
(S)-2-amino-3-(2-amino-4-(trifluoromethyl)phenyl)propanoic acid

>  <IUPAC_CONDENSED>  (2330) 
Phe(2-NH2,4-CF3)

>  <IUPAC>  (2330) 
(2S)-2-amino-3-(2-amino-4-(trifluoromethyl)phenyl)propanoic acid

>  <TYPE>  (2330) 
Backbone

>  <CLASS>  (2330) 
alpha

>  <ANALOG>  (2330) 
Phe

>  <MOL_WT>  (2330) 
248.20399999999992

>  <LOGP>  (2330) 
1.2420000000000002

>  <TPSA>  (2330) 
89.34

>  <POPULARITY>  (2330) 
2.9

>  <PROTECTED>  (2330) 
TRUE

>  <SMILES>  (2330) 
N[C@@H](Cc1(ccc(cc1N)C(F)(F)F))C(=O)O

>  <INCHIKEY>  (2330) 
PHVRLXVCQZNDSZ-QMMMGPOBSA-N

$$$$
Ala_pyrazol4yl_1Me
     RDKit          2D

 12 12  0  0  0  0  0  0  0  0999 V2000
   -1.1070    1.6556    0.0000 N   0  0  0  0  0  0  0  0  0  0  0  0
   -1.6374    0.2525    0.0000 C   0  0  0  0  0  0  0  0  0  0  0  0
   -0.6875   -0.9084    0.0000 C   0  0  0  0  0  0  0  0  0  0  0  0
    0.7928   -0.6662    0.0000 C   0  0  0  0  0  0  0  0  0  0  0  0
    1.8589   -1.7215    0.0000 C   0  0  0  0  0  0  0  0  0  0  0  0
    3.1919   -1.0337    0.0000 N   0  0  0  0  0  0  0  0  0  0  0  0
    2.9497    0.4466    0.0000 N   0  0  0  0  0  0  0  0  0  0  0  0
    4.0050    1.5127    0.0000 C   0  0  0  0  0  0  0  0  0  0  0  0
    1.4670    0.6737    0.0000 C   0  0  0  0  0  0  0  0  0  0  0  0
   -3.1177    0.0103    0.0000 C   0  0  0  0  0  0  0  0  0  0  0  0
   -3.6481   -1.3928    0.0000 O   0  0  0  0  0  0  0  0  0  0  0  0
   -4.0676    1.1712    0.0000 O   0  0  0  0  0  0  0  0  0  0  0  0
  2  1  1  1
  2  3  1  0
  3  4  1  0
  4  5  1  0
  5  6  2  0
  6  7  1  0
  7  8  1  0
  7  9  1  0
  2 10  1  0
 10 11  2  0
 10 12  1  0
  9  4  2  0
M  END
>  <rName>  (2331) 
Ala_pyrazol4yl_1Me

>  <PQ_SYMBOL>  (2331) 
Ala_pyrazol4yl_1Me

>  <FULL_NAME>  (2331) 
(S)-2-amino-3-(1-methyl-1H-pyrazol-4-yl)propanoic acid

>  <IUPAC_CONDENSED>  (2331) 
Ala(pyrazol-4-yl(1-Me))

>  <IUPAC>  (2331) 
(2S)-2-amino-3-(1-methyl-1H-pyrazol-4-yl)propanoic acid

>  <TYPE>  (2331) 
Backbone

>  <CLASS>  (2331) 
alpha

>  <ANALOG>  (2331) 
Phe

>  <MOL_WT>  (2331) 
169.184

>  <LOGP>  (2331) 
-0.6255000000000002

>  <TPSA>  (2331) 
81.14

>  <POPULARITY>  (2331) 
6.5

>  <PROTECTED>  (2331) 
TRUE

>  <SMILES>  (2331) 
N[C@@H](Cc1(cnn(C)c1))C(=O)O

>  <INCHIKEY>  (2331) 
UXJDTZCOFCDIIW-LURJTMIESA-N

$$$$
2Pal_3NH2_6Cl
     RDKit          2D

 14 14  0  0  0  0  0  0  0  0999 V2000
   -1.4552    1.7882    0.0000 N   0  0  0  0  0  0  0  0  0  0  0  0
   -1.9325    0.3661    0.0000 C   0  0  0  0  0  0  0  0  0  0  0  0
   -0.9397   -0.7583    0.0000 C   0  0  0  0  0  0  0  0  0  0  0  0
    0.5305   -0.4606    0.0000 C   0  0  0  0  0  0  0  0  0  0  0  0
    1.0078    0.9614    0.0000 N   0  0  0  0  0  0  0  0  0  0  0  0
    2.4780    1.2591    0.0000 C   0  0  0  0  0  0  0  0  0  0  0  0
    2.9553    2.6811    0.0000 Cl  0  0  0  0  0  0  0  0  0  0  0  0
    3.4709    0.1347    0.0000 C   0  0  0  0  0  0  0  0  0  0  0  0
    2.9935   -1.2874    0.0000 C   0  0  0  0  0  0  0  0  0  0  0  0
    1.5234   -1.5850    0.0000 C   0  0  0  0  0  0  0  0  0  0  0  0
    1.0461   -3.0070    0.0000 N   0  0  0  0  0  0  0  0  0  0  0  0
   -3.4027    0.0685    0.0000 C   0  0  0  0  0  0  0  0  0  0  0  0
   -3.8800   -1.3536    0.0000 O   0  0  0  0  0  0  0  0  0  0  0  0
   -4.3955    1.1929    0.0000 O   0  0  0  0  0  0  0  0  0  0  0  0
  2  1  1  1
  2  3  1  0
  3  4  1  0
  4  5  1  0
  5  6  2  0
  6  7  1  0
  6  8  1  0
  8  9  2  0
  9 10  1  0
 10 11  1  0
  2 12  1  0
 12 13  2  0
 12 14  1  0
 10  4  2  0
M  END
>  <rName>  (2332) 
2Pal_3NH2_6Cl

>  <PQ_SYMBOL>  (2332) 
2Pal_3NH2_6Cl

>  <FULL_NAME>  (2332) 
(S)-2-amino-3-(3-amino-6-chloropyridin-2-yl)propanoic acid

>  <IUPAC_CONDENSED>  (2332) 
2Pal(3-NH2,6-Cl)

>  <IUPAC>  (2332) 
(2S)-2-amino-3-(3-amino-6-chloropyridin-2-yl)propanoic acid

>  <TYPE>  (2332) 
Backbone

>  <CLASS>  (2332) 
alpha

>  <ANALOG>  (2332) 
Phe

>  <MOL_WT>  (2332) 
215.64000000000001

>  <LOGP>  (2332) 
0.2716000000000001

>  <TPSA>  (2332) 
102.23

>  <POPULARITY>  (2332) 
2.2

>  <PROTECTED>  (2332) 
TRUE

>  <SMILES>  (2332) 
N[C@@H](Cc1(nc(Cl)ccc1N))C(=O)O

>  <INCHIKEY>  (2332) 
DLESBRDVGQWWCI-YFKPBYRVSA-N

$$$$
Phe_34diCO2H
     RDKit          2D

 18 18  0  0  0  0  0  0  0  0999 V2000
   -3.1302    1.7241    0.0000 N   0  0  0  0  0  0  0  0  0  0  0  0
   -3.4035    0.2492    0.0000 C   0  0  0  0  0  0  0  0  0  0  0  0
   -2.2628   -0.7249    0.0000 C   0  0  0  0  0  0  0  0  0  0  0  0
   -0.8489   -0.2241    0.0000 C   0  0  0  0  0  0  0  0  0  0  0  0
   -0.5756    1.2508    0.0000 C   0  0  0  0  0  0  0  0  0  0  0  0
    0.8383    1.7516    0.0000 C   0  0  0  0  0  0  0  0  0  0  0  0
    1.9790    0.7775    0.0000 C   0  0  0  0  0  0  0  0  0  0  0  0
    3.3929    1.2783    0.0000 C   0  0  0  0  0  0  0  0  0  0  0  0
    3.6661    2.7532    0.0000 O   0  0  0  0  0  0  0  0  0  0  0  0
    4.5336    0.3042    0.0000 O   0  0  0  0  0  0  0  0  0  0  0  0
    1.7057   -0.6974    0.0000 C   0  0  0  0  0  0  0  0  0  0  0  0
    0.2918   -1.1982    0.0000 C   0  0  0  0  0  0  0  0  0  0  0  0
    2.8464   -1.6715    0.0000 C   0  0  0  0  0  0  0  0  0  0  0  0
    4.2603   -1.1707    0.0000 O   0  0  0  0  0  0  0  0  0  0  0  0
    2.5732   -3.1464    0.0000 O   0  0  0  0  0  0  0  0  0  0  0  0
   -4.8174   -0.2517    0.0000 C   0  0  0  0  0  0  0  0  0  0  0  0
   -5.0907   -1.7266    0.0000 O   0  0  0  0  0  0  0  0  0  0  0  0
   -5.9581    0.7224    0.0000 O   0  0  0  0  0  0  0  0  0  0  0  0
  2  1  1  1
  2  3  1  0
  3  4  1  0
  4  5  1  0
  5  6  2  0
  6  7  1  0
  7  8  1  0
  8  9  2  0
  8 10  1  0
  7 11  2  0
 11 12  1  0
 11 13  1  0
 13 14  2  0
 13 15  1  0
  2 16  1  0
 16 17  2  0
 16 18  1  0
 12  4  2  0
M  END
>  <rName>  (2333) 
Phe_34diCO2H

>  <PQ_SYMBOL>  (2333) 
Phe_34diCO2H

>  <FULL_NAME>  (2333) 
(S)-4-(2-amino-2-carboxyethyl)phthalic acid

>  <IUPAC_CONDENSED>  (2333) 
Phe(3,4-diCO2H)

>  <IUPAC>  (2333) 
4-((2S)-2-amino-3-hydroxy-3-oxopropyl)benzene-1,2-dicarboxylic acid

>  <TYPE>  (2333) 
Backbone

>  <CLASS>  (2333) 
alpha

>  <ANALOG>  (2333) 
Phe

>  <MOL_WT>  (2333) 
253.20999999999998

>  <LOGP>  (2333) 
0.03739999999999977

>  <TPSA>  (2333) 
137.92000000000002

>  <POPULARITY>  (2333) 
2.7

>  <PROTECTED>  (2333) 
TRUE

>  <SMILES>  (2333) 
N[C@@H](Cc1(ccc(C(=O)O)c(c1)C(=O)O))C(=O)O

>  <INCHIKEY>  (2333) 
DSZCXCQDLAVEHT-QMMMGPOBSA-N

$$$$
Phe_2CN_4NO2
     RDKit          2D

 17 17  0  0  0  0  0  0  0  0999 V2000
   -2.2343    2.1538    0.0000 N   0  0  0  0  0  0  0  0  0  0  0  0
   -2.7375    0.7407    0.0000 C   0  0  0  0  0  0  0  0  0  0  0  0
   -1.7653   -0.4016    0.0000 C   0  0  0  0  0  0  0  0  0  0  0  0
   -0.2900   -0.1309    0.0000 C   0  0  0  0  0  0  0  0  0  0  0  0
    0.2133    1.2822    0.0000 C   0  0  0  0  0  0  0  0  0  0  0  0
    1.6886    1.5529    0.0000 C   0  0  0  0  0  0  0  0  0  0  0  0
    2.6608    0.4106    0.0000 C   0  0  0  0  0  0  0  0  0  0  0  0
    2.1576   -1.0025    0.0000 C   0  0  0  0  0  0  0  0  0  0  0  0
    0.6822   -1.2732    0.0000 C   0  0  0  0  0  0  0  0  0  0  0  0
    0.1790   -2.6863    0.0000 C   0  0  0  0  0  0  0  0  0  0  0  0
   -0.3242   -4.0994    0.0000 N   0  0  0  0  0  0  0  0  0  0  0  0
    4.1361    0.6813    0.0000 N   0  0  0  0  0  0  0  0  0  0  0  0
    4.6394    2.0944    0.0000 O   0  0  0  0  0  0  0  0  0  0  0  0
    5.1083   -0.4610    0.0000 O   0  0  0  0  0  0  0  0  0  0  0  0
   -4.2128    0.4700    0.0000 C   0  0  0  0  0  0  0  0  0  0  0  0
   -4.7161   -0.9431    0.0000 O   0  0  0  0  0  0  0  0  0  0  0  0
   -5.1850    1.6123    0.0000 O   0  0  0  0  0  0  0  0  0  0  0  0
  2  1  1  1
  2  3  1  0
  3  4  1  0
  4  5  1  0
  5  6  2  0
  6  7  1  0
  7  8  2  0
  8  9  1  0
  9 10  1  0
 10 11  3  0
  7 12  1  0
 12 13  2  0
 12 14  1  0
  2 15  1  0
 15 16  2  0
 15 17  1  0
  9  4  2  0
M  CHG  2  12   1  14  -1
M  END
>  <rName>  (2334) 
Phe_2CN_4NO2

>  <PQ_SYMBOL>  (2334) 
Phe_2CN_4NO2

>  <FULL_NAME>  (2334) 
(S)-2-amino-3-(2-cyano-4-nitrophenyl)propanoic acid

>  <IUPAC_CONDENSED>  (2334) 
Phe(2-CN,4-NO2)

>  <IUPAC>  (2334) 
(2S)-2-amino-3-(2-(nitrilomethyl)-4-nitrophenyl)propanoic acid

>  <TYPE>  (2334) 
Backbone

>  <CLASS>  (2334) 
alpha

>  <ANALOG>  (2334) 
Phe

>  <MOL_WT>  (2334) 
235.19899999999996

>  <LOGP>  (2334) 
0.42087999999999987

>  <TPSA>  (2334) 
130.25

>  <POPULARITY>  (2334) 
2.4

>  <PROTECTED>  (2334) 
TRUE

>  <SMILES>  (2334) 
N[C@@H](Cc1(ccc(cc1C#N)[N+](=O)[O-]))C(=O)O

>  <INCHIKEY>  (2334) 
ZEUOKIZXIYRENH-VIFPVBQESA-N

$$$$
Phe_2F_6CO2H
     RDKit          2D

 16 16  0  0  0  0  0  0  0  0999 V2000
   -2.0704    1.6856    0.0000 N   0  0  0  0  0  0  0  0  0  0  0  0
   -2.0347    0.1860    0.0000 C   0  0  0  0  0  0  0  0  0  0  0  0
   -0.7182   -0.5329    0.0000 C   0  0  0  0  0  0  0  0  0  0  0  0
    0.5626    0.2478    0.0000 C   0  0  0  0  0  0  0  0  0  0  0  0
    0.5269    1.7474    0.0000 C   0  0  0  0  0  0  0  0  0  0  0  0
   -0.7896    2.4663    0.0000 F   0  0  0  0  0  0  0  0  0  0  0  0
    1.8077    2.5281    0.0000 C   0  0  0  0  0  0  0  0  0  0  0  0
    3.1242    1.8092    0.0000 C   0  0  0  0  0  0  0  0  0  0  0  0
    3.1599    0.3096    0.0000 C   0  0  0  0  0  0  0  0  0  0  0  0
    1.8791   -0.4710    0.0000 C   0  0  0  0  0  0  0  0  0  0  0  0
    1.9148   -1.9706    0.0000 C   0  0  0  0  0  0  0  0  0  0  0  0
    3.2313   -2.6895    0.0000 O   0  0  0  0  0  0  0  0  0  0  0  0
    0.6340   -2.7513    0.0000 O   0  0  0  0  0  0  0  0  0  0  0  0
   -3.3156   -0.5947    0.0000 C   0  0  0  0  0  0  0  0  0  0  0  0
   -3.2799   -2.0943    0.0000 O   0  0  0  0  0  0  0  0  0  0  0  0
   -4.6321    0.1242    0.0000 O   0  0  0  0  0  0  0  0  0  0  0  0
  2  1  1  1
  2  3  1  0
  3  4  1  0
  4  5  2  0
  5  6  1  0
  5  7  1  0
  7  8  2  0
  8  9  1  0
  9 10  2  0
 10 11  1  0
 11 12  2  0
 11 13  1  0
  2 14  1  0
 14 15  2  0
 14 16  1  0
 10  4  1  0
M  END
>  <rName>  (2335) 
Phe_2F_6CO2H

>  <PQ_SYMBOL>  (2335) 
Phe_2F_6CO2H

>  <FULL_NAME>  (2335) 
(S)-2-(2-amino-2-carboxyethyl)-3-fluorobenzoic acid

>  <IUPAC_CONDENSED>  (2335) 
Phe(2-F,6-CO2H)

>  <IUPAC>  (2335) 
2-((2S)-2-amino-3-hydroxy-3-oxopropyl)-3-fluorobenzene-1-carboxylic acid

>  <TYPE>  (2335) 
Backbone

>  <CLASS>  (2335) 
alpha

>  <ANALOG>  (2335) 
Phe

>  <MOL_WT>  (2335) 
227.19099999999997

>  <LOGP>  (2335) 
0.47829999999999984

>  <TPSA>  (2335) 
100.62000000000002

>  <POPULARITY>  (2335) 
2.7

>  <PROTECTED>  (2335) 
TRUE

>  <SMILES>  (2335) 
N[C@@H](Cc1(c(F)cccc1C(=O)O))C(=O)O

>  <INCHIKEY>  (2335) 
NEVQYAJBNKPXER-QMMMGPOBSA-N

$$$$
Phe_3OMe_4Me
     RDKit          2D

 15 15  0  0  0  0  0  0  0  0999 V2000
   -2.4309    1.6735    0.0000 N   0  0  0  0  0  0  0  0  0  0  0  0
   -2.5936    0.1823    0.0000 C   0  0  0  0  0  0  0  0  0  0  0  0
   -1.3836   -0.7041    0.0000 C   0  0  0  0  0  0  0  0  0  0  0  0
   -0.0108   -0.0994    0.0000 C   0  0  0  0  0  0  0  0  0  0  0  0
    0.1518    1.3917    0.0000 C   0  0  0  0  0  0  0  0  0  0  0  0
    1.5245    1.9964    0.0000 C   0  0  0  0  0  0  0  0  0  0  0  0
    2.7346    1.1100    0.0000 C   0  0  0  0  0  0  0  0  0  0  0  0
    4.1073    1.7147    0.0000 C   0  0  0  0  0  0  0  0  0  0  0  0
    2.5719   -0.3812    0.0000 C   0  0  0  0  0  0  0  0  0  0  0  0
    3.7820   -1.2676    0.0000 O   0  0  0  0  0  0  0  0  0  0  0  0
    3.6193   -2.7588    0.0000 C   0  0  0  0  0  0  0  0  0  0  0  0
    1.1992   -0.9859    0.0000 C   0  0  0  0  0  0  0  0  0  0  0  0
   -3.9663   -0.4224    0.0000 C   0  0  0  0  0  0  0  0  0  0  0  0
   -4.1290   -1.9135    0.0000 O   0  0  0  0  0  0  0  0  0  0  0  0
   -5.1764    0.4641    0.0000 O   0  0  0  0  0  0  0  0  0  0  0  0
  2  1  1  1
  2  3  1  0
  3  4  1  0
  4  5  1  0
  5  6  2  0
  6  7  1  0
  7  8  1  0
  7  9  2  0
  9 10  1  0
 10 11  1  0
  9 12  1  0
  2 13  1  0
 13 14  2  0
 13 15  1  0
 12  4  2  0
M  END
>  <rName>  (2336) 
Phe_3OMe_4Me

>  <PQ_SYMBOL>  (2336) 
Phe_3OMe_4Me

>  <FULL_NAME>  (2336) 
(S)-2-amino-3-(3-methoxy-4-methylphenyl)propanoic acid

>  <IUPAC_CONDENSED>  (2336) 
Phe(3-OMe,4-Me)

>  <IUPAC>  (2336) 
(2S)-2-amino-3-(3-methoxy-4-methylphenyl)propanoic acid

>  <TYPE>  (2336) 
Backbone

>  <CLASS>  (2336) 
alpha

>  <ANALOG>  (2336) 
Tyr

>  <MOL_WT>  (2336) 
209.24499999999998

>  <LOGP>  (2336) 
0.9580199999999999

>  <TPSA>  (2336) 
72.55

>  <POPULARITY>  (2336) 
4.6

>  <PROTECTED>  (2336) 
TRUE

>  <SMILES>  (2336) 
N[C@@H](Cc1(ccc(C)c(OC)c1))C(=O)O

>  <INCHIKEY>  (2336) 
KVCLBSURIAFEJS-VIFPVBQESA-N

$$$$
3Pal_6CO2H
     RDKit          2D

 15 15  0  0  0  0  0  0  0  0999 V2000
   -2.2547    1.6872    0.0000 N   0  0  0  0  0  0  0  0  0  0  0  0
   -2.7489    0.2709    0.0000 C   0  0  0  0  0  0  0  0  0  0  0  0
   -1.7696   -0.8652    0.0000 C   0  0  0  0  0  0  0  0  0  0  0  0
   -0.2959   -0.5852    0.0000 C   0  0  0  0  0  0  0  0  0  0  0  0
    0.1983    0.8311    0.0000 C   0  0  0  0  0  0  0  0  0  0  0  0
    1.6719    1.1111    0.0000 C   0  0  0  0  0  0  0  0  0  0  0  0
    2.6513   -0.0250    0.0000 C   0  0  0  0  0  0  0  0  0  0  0  0
    2.1570   -1.4413    0.0000 N   0  0  0  0  0  0  0  0  0  0  0  0
    0.6834   -1.7213    0.0000 C   0  0  0  0  0  0  0  0  0  0  0  0
    4.1249    0.2550    0.0000 C   0  0  0  0  0  0  0  0  0  0  0  0
    4.6192    1.6713    0.0000 O   0  0  0  0  0  0  0  0  0  0  0  0
    5.1043   -0.8811    0.0000 O   0  0  0  0  0  0  0  0  0  0  0  0
   -4.2225   -0.0091    0.0000 C   0  0  0  0  0  0  0  0  0  0  0  0
   -4.7168   -1.4254    0.0000 O   0  0  0  0  0  0  0  0  0  0  0  0
   -5.2019    1.1270    0.0000 O   0  0  0  0  0  0  0  0  0  0  0  0
  2  1  1  1
  2  3  1  0
  3  4  1  0
  4  5  1  0
  5  6  2  0
  6  7  1  0
  7  8  2  0
  8  9  1  0
  7 10  1  0
 10 11  2  0
 10 12  1  0
  2 13  1  0
 13 14  2  0
 13 15  1  0
  9  4  2  0
M  END
>  <rName>  (2337) 
3Pal_6CO2H

>  <PQ_SYMBOL>  (2337) 
3Pal_6CO2H

>  <FULL_NAME>  (2337) 
(S)-5-(2-amino-2-carboxyethyl)picolinic acid

>  <IUPAC_CONDENSED>  (2337) 
3Pal(6-CO2H)

>  <IUPAC>  (2337) 
5-((2S)-2-amino-3-hydroxy-3-oxopropyl)pyridine-2-carboxylic acid

>  <TYPE>  (2337) 
Backbone

>  <CLASS>  (2337) 
alpha

>  <ANALOG>  (2337) 
Phe

>  <MOL_WT>  (2337) 
210.18899999999996

>  <LOGP>  (2337) 
-0.2658000000000001

>  <TPSA>  (2337) 
113.51

>  <POPULARITY>  (2337) 
2.7

>  <PROTECTED>  (2337) 
TRUE

>  <SMILES>  (2337) 
N[C@@H](Cc1(ccc(nc1)C(=O)O))C(=O)O

>  <INCHIKEY>  (2337) 
RAHWNXIQXPRNOJ-LURJTMIESA-N

$$$$
Nva_N3
     RDKit          2D

 11 10  0  0  0  0  0  0  0  0999 V2000
    2.1124   -1.8649    0.0000 N   0  0  0  0  0  0  0  0  0  0  0  0
    2.0306   -0.3672    0.0000 C   0  0  0  0  0  0  0  0  0  0  0  0
    0.6927    0.3109    0.0000 C   0  0  0  0  0  0  0  0  0  0  0  0
   -0.5636   -0.5087    0.0000 C   0  0  0  0  0  0  0  0  0  0  0  0
   -1.9016    0.1694    0.0000 C   0  0  0  0  0  0  0  0  0  0  0  0
   -3.1578   -0.6503    0.0000 N   0  0  0  0  0  0  0  0  0  0  0  0
   -4.4958    0.0278    0.0000 N   0  0  0  0  0  0  0  0  0  0  0  0
   -5.8338    0.7059    0.0000 N   0  0  0  0  0  0  0  0  0  0  0  0
    3.2869    0.4525    0.0000 C   0  0  0  0  0  0  0  0  0  0  0  0
    3.2051    1.9503    0.0000 O   0  0  0  0  0  0  0  0  0  0  0  0
    4.6248   -0.2256    0.0000 O   0  0  0  0  0  0  0  0  0  0  0  0
  2  1  1  1
  2  3  1  0
  3  4  1  0
  4  5  1  0
  5  6  1  0
  6  7  2  0
  7  8  2  0
  2  9  1  0
  9 10  2  0
  9 11  1  0
M  CHG  2   7   1   8  -1
M  END
>  <rName>  (2338) 
Nva_N3

>  <PQ_SYMBOL>  (2338) 
Nva_N3

>  <FULL_NAME>  (2338) 
(S)-2-amino-5-azidopentanoic acid

>  <IUPAC_CONDENSED>  (2338) 
Nva(N3)

>  <IUPAC>  (2338) 
(2S)-2-amino-5-azidopentanoic acid

>  <TYPE>  (2338) 
Backbone

>  <CLASS>  (2338) 
alpha

>  <ANALOG>  (2338) 
Lys

>  <MOL_WT>  (2338) 
158.16100000000003

>  <LOGP>  (2338) 
0.4887999999999996

>  <TPSA>  (2338) 
112.08

>  <POPULARITY>  (2338) 
7.2

>  <PROTECTED>  (2338) 
TRUE

>  <SMILES>  (2338) 
N[C@@H](CCCN=[N+]=[N-])C(=O)O

>  <INCHIKEY>  (2338) 
AUARUCAREKTRCL-BYPYZUCNSA-N

$$$$
Phe_4NMe2
     RDKit          2D

 15 15  0  0  0  0  0  0  0  0999 V2000
   -2.2547    1.6872    0.0000 N   0  0  0  0  0  0  0  0  0  0  0  0
   -2.7489    0.2709    0.0000 C   0  0  0  0  0  0  0  0  0  0  0  0
   -1.7696   -0.8652    0.0000 C   0  0  0  0  0  0  0  0  0  0  0  0
   -0.2959   -0.5852    0.0000 C   0  0  0  0  0  0  0  0  0  0  0  0
    0.1983    0.8311    0.0000 C   0  0  0  0  0  0  0  0  0  0  0  0
    1.6719    1.1111    0.0000 C   0  0  0  0  0  0  0  0  0  0  0  0
    2.6513   -0.0250    0.0000 C   0  0  0  0  0  0  0  0  0  0  0  0
    2.1570   -1.4413    0.0000 C   0  0  0  0  0  0  0  0  0  0  0  0
    0.6834   -1.7213    0.0000 C   0  0  0  0  0  0  0  0  0  0  0  0
    4.1249    0.2550    0.0000 N   0  0  0  0  0  0  0  0  0  0  0  0
    5.1043   -0.8811    0.0000 C   0  0  0  0  0  0  0  0  0  0  0  0
    4.6192    1.6713    0.0000 C   0  0  0  0  0  0  0  0  0  0  0  0
   -4.2225   -0.0091    0.0000 C   0  0  0  0  0  0  0  0  0  0  0  0
   -4.7168   -1.4254    0.0000 O   0  0  0  0  0  0  0  0  0  0  0  0
   -5.2019    1.1270    0.0000 O   0  0  0  0  0  0  0  0  0  0  0  0
  2  1  1  1
  2  3  1  0
  3  4  1  0
  4  5  1  0
  5  6  2  0
  6  7  1  0
  7  8  2  0
  8  9  1  0
  7 10  1  0
 10 11  1  0
 10 12  1  0
  2 13  1  0
 13 14  2  0
 13 15  1  0
  9  4  2  0
M  END
>  <rName>  (2339) 
Phe_4NMe2

>  <PQ_SYMBOL>  (2339) 
Phe_4NMe2

>  <FULL_NAME>  (2339) 
(S)-2-amino-3-(4-(dimethylamino)phenyl)propanoic acid

>  <IUPAC_CONDENSED>  (2339) 
Phe(4-NMe2)

>  <IUPAC>  (2339) 
(2S)-2-amino-3-(4-(dimethylamino)phenyl)propanoic acid

>  <TYPE>  (2339) 
Backbone

>  <CLASS>  (2339) 
alpha

>  <ANALOG>  (2339) 
Phe

>  <MOL_WT>  (2339) 
208.26099999999994

>  <LOGP>  (2339) 
0.7070000000000001

>  <TPSA>  (2339) 
66.56

>  <POPULARITY>  (2339) 
10.1

>  <PROTECTED>  (2339) 
TRUE

>  <SMILES>  (2339) 
N[C@@H](Cc1(ccc(cc1)N(C)C))C(=O)O

>  <INCHIKEY>  (2339) 
USEYFCOAPFGKLX-JTQLQIEISA-N

$$$$
Phe_SMe
     RDKit          2D

 14 14  0  0  0  0  0  0  0  0999 V2000
   -2.0397    1.6757    0.0000 N   0  0  0  0  0  0  0  0  0  0  0  0
   -2.4395    0.2299    0.0000 C   0  0  0  0  0  0  0  0  0  0  0  0
   -1.3873   -0.8392    0.0000 C   0  0  0  0  0  0  0  0  0  0  0  0
    0.0646   -0.4625    0.0000 C   0  0  0  0  0  0  0  0  0  0  0  0
    0.4644    0.9832    0.0000 C   0  0  0  0  0  0  0  0  0  0  0  0
    1.9164    1.3598    0.0000 C   0  0  0  0  0  0  0  0  0  0  0  0
    2.9685    0.2907    0.0000 C   0  0  0  0  0  0  0  0  0  0  0  0
    2.5687   -1.1550    0.0000 C   0  0  0  0  0  0  0  0  0  0  0  0
    1.1168   -1.5316    0.0000 C   0  0  0  0  0  0  0  0  0  0  0  0
    4.4205    0.6674    0.0000 S   0  0  0  0  0  0  0  0  0  0  0  0
    5.4726   -0.4017    0.0000 C   0  0  0  0  0  0  0  0  0  0  0  0
   -3.8914   -0.1467    0.0000 C   0  0  0  0  0  0  0  0  0  0  0  0
   -4.2912   -1.5924    0.0000 O   0  0  0  0  0  0  0  0  0  0  0  0
   -4.9436    0.9224    0.0000 O   0  0  0  0  0  0  0  0  0  0  0  0
  2  1  1  1
  2  3  1  0
  3  4  1  0
  4  5  1  0
  5  6  2  0
  6  7  1  0
  7  8  2  0
  8  9  1  0
  7 10  1  0
 10 11  1  0
  2 12  1  0
 12 13  2  0
 12 14  1  0
  9  4  2  0
M  END
>  <rName>  (2340) 
Phe_SMe

>  <PQ_SYMBOL>  (2340) 
Phe_SMe

>  <FULL_NAME>  (2340) 
(S)-2-amino-3-(4-(methylthio)phenyl)propanoic acid

>  <IUPAC_CONDENSED>  (2340) 
Phe(SMe)

>  <IUPAC>  (2340) 
(2S)-2-amino-3-(4-(methylsulfanyl)phenyl)propanoic acid

>  <TYPE>  (2340) 
Backbone

>  <CLASS>  (2340) 
alpha

>  <ANALOG>  (2340) 
Phe

>  <MOL_WT>  (2340) 
211.28599999999994

>  <LOGP>  (2340) 
1.3629000000000002

>  <TPSA>  (2340) 
63.32000000000001

>  <POPULARITY>  (2340) 
4.6

>  <PROTECTED>  (2340) 
TRUE

>  <SMILES>  (2340) 
N[C@@H](Cc1(ccc(cc1)SC))C(=O)O

>  <INCHIKEY>  (2340) 
CYPJHFKIGWANKM-VIFPVBQESA-N

$$$$
Phe_2NO2_5OMe
     RDKit          2D

 17 17  0  0  0  0  0  0  0  0999 V2000
   -1.4771    2.3022    0.0000 N   0  0  0  0  0  0  0  0  0  0  0  0
   -2.1654    0.9694    0.0000 C   0  0  0  0  0  0  0  0  0  0  0  0
   -1.3554   -0.2930    0.0000 C   0  0  0  0  0  0  0  0  0  0  0  0
    0.1429   -0.2228    0.0000 C   0  0  0  0  0  0  0  0  0  0  0  0
    0.8313    1.1100    0.0000 C   0  0  0  0  0  0  0  0  0  0  0  0
    2.3296    1.1802    0.0000 C   0  0  0  0  0  0  0  0  0  0  0  0
    3.0180    2.5130    0.0000 O   0  0  0  0  0  0  0  0  0  0  0  0
    4.5163    2.5832    0.0000 C   0  0  0  0  0  0  0  0  0  0  0  0
    3.1397   -0.0823    0.0000 C   0  0  0  0  0  0  0  0  0  0  0  0
    2.4513   -1.4150    0.0000 C   0  0  0  0  0  0  0  0  0  0  0  0
    0.9530   -1.4853    0.0000 C   0  0  0  0  0  0  0  0  0  0  0  0
    0.2646   -2.8180    0.0000 N   0  0  0  0  0  0  0  0  0  0  0  0
   -1.2337   -2.8883    0.0000 O   0  0  0  0  0  0  0  0  0  0  0  0
    1.0747   -4.0805    0.0000 O   0  0  0  0  0  0  0  0  0  0  0  0
   -3.6638    0.8992    0.0000 C   0  0  0  0  0  0  0  0  0  0  0  0
   -4.3521   -0.4336    0.0000 O   0  0  0  0  0  0  0  0  0  0  0  0
   -4.4738    2.1617    0.0000 O   0  0  0  0  0  0  0  0  0  0  0  0
  2  1  1  1
  2  3  1  0
  3  4  1  0
  4  5  1  0
  5  6  2  0
  6  7  1  0
  7  8  1  0
  6  9  1  0
  9 10  2  0
 10 11  1  0
 11 12  1  0
 12 13  2  0
 12 14  1  0
  2 15  1  0
 15 16  2  0
 15 17  1  0
 11  4  2  0
M  CHG  2  12   1  14  -1
M  END
>  <rName>  (2341) 
Phe_2NO2_5OMe

>  <PQ_SYMBOL>  (2341) 
Phe_2NO2_5OMe

>  <FULL_NAME>  (2341) 
(S)-2-amino-3-(5-methoxy-2-nitrophenyl)propanoic acid

>  <IUPAC_CONDENSED>  (2341) 
Phe(2-NO2,5-OMe)

>  <IUPAC>  (2341) 
(2S)-2-amino-3-(5-methoxy-2-nitrophenyl)propanoic acid

>  <TYPE>  (2341) 
Backbone

>  <CLASS>  (2341) 
alpha

>  <ANALOG>  (2341) 
Tyr

>  <MOL_WT>  (2341) 
240.21499999999997

>  <LOGP>  (2341) 
0.5578000000000001

>  <TPSA>  (2341) 
115.69000000000001

>  <POPULARITY>  (2341) 
3.5

>  <PROTECTED>  (2341) 
TRUE

>  <SMILES>  (2341) 
N[C@@H](Cc1(cc(OC)ccc1[N+](=O)[O-]))C(=O)O

>  <INCHIKEY>  (2341) 
LKLUGRJBXBWZEK-QMMMGPOBSA-N

$$$$
Phe_4Ph_4Et
     RDKit          2D

 20 21  0  0  0  0  0  0  0  0999 V2000
   -4.0713    1.7141    0.0000 N   0  0  0  0  0  0  0  0  0  0  0  0
   -4.6297    0.3219    0.0000 C   0  0  0  0  0  0  0  0  0  0  0  0
   -3.7033   -0.8578    0.0000 C   0  0  0  0  0  0  0  0  0  0  0  0
   -2.2185   -0.6454    0.0000 C   0  0  0  0  0  0  0  0  0  0  0  0
   -1.6600    0.7467    0.0000 C   0  0  0  0  0  0  0  0  0  0  0  0
   -0.1751    0.9592    0.0000 C   0  0  0  0  0  0  0  0  0  0  0  0
    0.7513   -0.2206    0.0000 C   0  0  0  0  0  0  0  0  0  0  0  0
    0.1928   -1.6127    0.0000 C   0  0  0  0  0  0  0  0  0  0  0  0
   -1.2921   -1.8252    0.0000 C   0  0  0  0  0  0  0  0  0  0  0  0
    2.2362   -0.0082    0.0000 C   0  0  0  0  0  0  0  0  0  0  0  0
    3.1626   -1.1879    0.0000 C   0  0  0  0  0  0  0  0  0  0  0  0
    4.6475   -0.9755    0.0000 C   0  0  0  0  0  0  0  0  0  0  0  0
    5.2060    0.4166    0.0000 C   0  0  0  0  0  0  0  0  0  0  0  0
    4.2796    1.5964    0.0000 C   0  0  0  0  0  0  0  0  0  0  0  0
    2.7947    1.3840    0.0000 C   0  0  0  0  0  0  0  0  0  0  0  0
    6.6908    0.6291    0.0000 C   0  0  0  0  0  0  0  0  0  0  0  0
    7.6172   -0.5507    0.0000 C   0  0  0  0  0  0  0  0  0  0  0  0
   -6.1146    0.1095    0.0000 C   0  0  0  0  0  0  0  0  0  0  0  0
   -6.6731   -1.2827    0.0000 O   0  0  0  0  0  0  0  0  0  0  0  0
   -7.0410    1.2892    0.0000 O   0  0  0  0  0  0  0  0  0  0  0  0
  2  1  1  1
  2  3  1  0
  3  4  1  0
  4  5  1  0
  5  6  2  0
  6  7  1  0
  7  8  2  0
  8  9  1  0
  7 10  1  0
 10 11  1  0
 11 12  2  0
 12 13  1  0
 13 14  2  0
 14 15  1  0
 13 16  1  0
 16 17  1  0
  2 18  1  0
 18 19  2  0
 18 20  1  0
  9  4  2  0
 15 10  2  0
M  END
>  <rName>  (2342) 
Phe_4Ph_4Et

>  <PQ_SYMBOL>  (2342) 
Phe_4Ph_4Et

>  <FULL_NAME>  (2342) 
(S)-2-amino-3-(4'-ethyl-[1,1'-biphenyl]-4-yl)propanoic acid

>  <IUPAC_CONDENSED>  (2342) 
Phe(4-Ph(4-Et))

>  <IUPAC>  (2342) 
(2S)-2-amino-3-(4-(4-ethylphenyl)phenyl)propanoic acid

>  <TYPE>  (2342) 
Backbone

>  <CLASS>  (2342) 
alpha

>  <ANALOG>  (2342) 
Phe

>  <MOL_WT>  (2342) 
269.34399999999994

>  <LOGP>  (2342) 
2.870400000000001

>  <TPSA>  (2342) 
63.32000000000001

>  <POPULARITY>  (2342) 
4.7

>  <PROTECTED>  (2342) 
TRUE

>  <SMILES>  (2342) 
N[C@@H](Cc1(ccc(cc1)c2(ccc(cc2)CC)))C(=O)O

>  <INCHIKEY>  (2342) 
NOUZOIQUNLAZBG-INIZCTEOSA-N

$$$$
Phe_2Me_6CONH2
     RDKit          2D

 16 16  0  0  0  0  0  0  0  0999 V2000
   -2.0704    1.6856    0.0000 N   0  0  0  0  0  0  0  0  0  0  0  0
   -2.0347    0.1860    0.0000 C   0  0  0  0  0  0  0  0  0  0  0  0
   -0.7182   -0.5329    0.0000 C   0  0  0  0  0  0  0  0  0  0  0  0
    0.5626    0.2478    0.0000 C   0  0  0  0  0  0  0  0  0  0  0  0
    0.5269    1.7474    0.0000 C   0  0  0  0  0  0  0  0  0  0  0  0
   -0.7896    2.4663    0.0000 C   0  0  0  0  0  0  0  0  0  0  0  0
    1.8077    2.5281    0.0000 C   0  0  0  0  0  0  0  0  0  0  0  0
    3.1242    1.8092    0.0000 C   0  0  0  0  0  0  0  0  0  0  0  0
    3.1599    0.3096    0.0000 C   0  0  0  0  0  0  0  0  0  0  0  0
    1.8791   -0.4710    0.0000 C   0  0  0  0  0  0  0  0  0  0  0  0
    1.9148   -1.9706    0.0000 C   0  0  0  0  0  0  0  0  0  0  0  0
    0.6340   -2.7513    0.0000 O   0  0  0  0  0  0  0  0  0  0  0  0
    3.2313   -2.6895    0.0000 N   0  0  0  0  0  0  0  0  0  0  0  0
   -3.3156   -0.5947    0.0000 C   0  0  0  0  0  0  0  0  0  0  0  0
   -3.2799   -2.0943    0.0000 O   0  0  0  0  0  0  0  0  0  0  0  0
   -4.6321    0.1242    0.0000 O   0  0  0  0  0  0  0  0  0  0  0  0
  2  1  1  1
  2  3  1  0
  3  4  1  0
  4  5  2  0
  5  6  1  0
  5  7  1  0
  7  8  2  0
  8  9  1  0
  9 10  2  0
 10 11  1  0
 11 12  2  0
 11 13  1  0
  2 14  1  0
 14 15  2  0
 14 16  1  0
 10  4  1  0
M  END
>  <rName>  (2343) 
Phe_2Me_6CONH2

>  <PQ_SYMBOL>  (2343) 
Phe_2Me_6CONH2

>  <FULL_NAME>  (2343) 
(S)-2-amino-3-(2-carbamoyl-6-methylphenyl)propanoic acid

>  <IUPAC_CONDENSED>  (2343) 
Phe(2-Me,6-CONH2)

>  <IUPAC>  (2343) 
(2S)-2-amino-3-(2-carbamoyl-6-methylphenyl)propanoic acid

>  <TYPE>  (2343) 
Backbone

>  <CLASS>  (2343) 
alpha

>  <ANALOG>  (2343) 
Phe

>  <MOL_WT>  (2343) 
222.24399999999994

>  <LOGP>  (2343) 
0.048320000000000196

>  <TPSA>  (2343) 
106.41000000000001

>  <POPULARITY>  (2343) 
2.4

>  <PROTECTED>  (2343) 
TRUE

>  <SMILES>  (2343) 
N[C@@H](Cc1(c(C)cccc1C(=O)N))C(=O)O

>  <INCHIKEY>  (2343) 
XAQMIDBTMAXVKZ-VIFPVBQESA-N

$$$$
Ser_Pyranose_RSSR
     RDKit          2D

 18 18  0  0  0  0  0  0  0  0999 V2000
   -3.8443   -1.9506    0.0000 N   0  0  0  0  0  0  0  0  0  0  0  0
   -3.5136   -0.4875    0.0000 C   0  0  0  0  0  0  0  0  0  0  0  0
   -2.0812   -0.0423    0.0000 C   0  0  0  0  0  0  0  0  0  0  0  0
   -0.9795   -1.0602    0.0000 O   0  0  0  0  0  0  0  0  0  0  0  0
    0.4529   -0.6150    0.0000 C   0  0  0  0  0  0  0  0  0  0  0  0
    0.7836    0.8481    0.0000 O   0  0  0  0  0  0  0  0  0  0  0  0
    2.2160    1.2933    0.0000 C   0  0  0  0  0  0  0  0  0  0  0  0
    2.5466    2.7564    0.0000 C   0  0  0  0  0  0  0  0  0  0  0  0
    1.4449    3.7743    0.0000 O   0  0  0  0  0  0  0  0  0  0  0  0
    3.3178    0.2754    0.0000 C   0  0  0  0  0  0  0  0  0  0  0  0
    4.7502    0.7206    0.0000 O   0  0  0  0  0  0  0  0  0  0  0  0
    2.9871   -1.1877    0.0000 C   0  0  0  0  0  0  0  0  0  0  0  0
    4.0889   -2.2056    0.0000 O   0  0  0  0  0  0  0  0  0  0  0  0
    1.5547   -1.6329    0.0000 C   0  0  0  0  0  0  0  0  0  0  0  0
    1.2240   -3.0960    0.0000 O   0  0  0  0  0  0  0  0  0  0  0  0
   -4.6154    0.5304    0.0000 C   0  0  0  0  0  0  0  0  0  0  0  0
   -4.2848    1.9935    0.0000 O   0  0  0  0  0  0  0  0  0  0  0  0
   -6.0478    0.0852    0.0000 O   0  0  0  0  0  0  0  0  0  0  0  0
  2  1  1  6
  2  3  1  0
  3  4  1  0
  5  4  1  6
  5  6  1  0
  6  7  1  0
  7  8  1  6
  8  9  1  0
  7 10  1  0
 10 11  1  1
 10 12  1  0
 12 13  1  6
 12 14  1  0
 14 15  1  1
  2 16  1  0
 16 17  2  0
 16 18  1  0
 14  5  1  0
M  END
>  <rName>  (2344) 
Ser_Pyranose_RSSR

>  <PQ_SYMBOL>  (2344) 
Ser_Pyranose_RSSR

>  <FULL_NAME>  (2344) 
O-((2R,3R,4S,5S,6R)-3,4,5-trihydroxy-6-(hydroxymethyl)tetrahydro-2H-pyran-2-yl)-L-serine

>  <IUPAC_CONDENSED>  (2344) 
Ser(Pyranose(RSSR))

>  <IUPAC>  (2344) 
(2S)-2-amino-3-(((2R,3R,4S,5S,6R)-3,4,5-trihydroxy-6-(hydroxymethyl)-oxan-2-yl)oxy)propanoic acid

>  <TYPE>  (2344) 
Backbone

>  <CLASS>  (2344) 
alpha

>  <ANALOG>  (2344) 
Ser

>  <MOL_WT>  (2344) 
267.234

>  <LOGP>  (2344) 
-3.785199999999998

>  <TPSA>  (2344) 
162.70000000000002

>  <POPULARITY>  (2344) 
4.4

>  <PROTECTED>  (2344) 
TRUE

>  <SMILES>  (2344) 
N[C@@H](CO[C@@H]1(O[C@H](CO)[C@@H](O)[C@H](O)[C@H]1O))C(=O)O

>  <INCHIKEY>  (2344) 
HGTOXWOVJAONKK-AVLLYLPDSA-N

$$$$
Phe_3Cl_4NH2
     RDKit          2D

 14 14  0  0  0  0  0  0  0  0999 V2000
   -2.0094    1.6916    0.0000 N   0  0  0  0  0  0  0  0  0  0  0  0
   -2.3243    0.2250    0.0000 C   0  0  0  0  0  0  0  0  0  0  0  0
   -1.2116   -0.7809    0.0000 C   0  0  0  0  0  0  0  0  0  0  0  0
    0.2159   -0.3203    0.0000 C   0  0  0  0  0  0  0  0  0  0  0  0
    0.5308    1.1463    0.0000 C   0  0  0  0  0  0  0  0  0  0  0  0
    1.9583    1.6069    0.0000 C   0  0  0  0  0  0  0  0  0  0  0  0
    3.0710    0.6009    0.0000 C   0  0  0  0  0  0  0  0  0  0  0  0
    4.4985    1.0615    0.0000 N   0  0  0  0  0  0  0  0  0  0  0  0
    2.7561   -0.8657    0.0000 C   0  0  0  0  0  0  0  0  0  0  0  0
    3.8688   -1.8716    0.0000 Cl  0  0  0  0  0  0  0  0  0  0  0  0
    1.3286   -1.3263    0.0000 C   0  0  0  0  0  0  0  0  0  0  0  0
   -3.7518   -0.2356    0.0000 C   0  0  0  0  0  0  0  0  0  0  0  0
   -4.0666   -1.7022    0.0000 O   0  0  0  0  0  0  0  0  0  0  0  0
   -4.8644    0.7704    0.0000 O   0  0  0  0  0  0  0  0  0  0  0  0
  2  1  1  1
  2  3  1  0
  3  4  1  0
  4  5  1  0
  5  6  2  0
  6  7  1  0
  7  8  1  0
  7  9  2  0
  9 10  1  0
  9 11  1  0
  2 12  1  0
 12 13  2  0
 12 14  1  0
 11  4  2  0
M  END
>  <rName>  (2345) 
Phe_3Cl_4NH2

>  <PQ_SYMBOL>  (2345) 
Phe_3Cl_4NH2

>  <FULL_NAME>  (2345) 
(S)-2-amino-3-(4-amino-3-chlorophenyl)propanoic acid

>  <IUPAC_CONDENSED>  (2345) 
Phe(3-Cl,4-NH2)

>  <IUPAC>  (2345) 
(2S)-2-amino-3-(4-amino-3-chlorophenyl)propanoic acid

>  <TYPE>  (2345) 
Backbone

>  <CLASS>  (2345) 
alpha

>  <ANALOG>  (2345) 
Phe

>  <MOL_WT>  (2345) 
214.652

>  <LOGP>  (2345) 
0.8766000000000003

>  <TPSA>  (2345) 
89.34

>  <POPULARITY>  (2345) 
4.2

>  <PROTECTED>  (2345) 
TRUE

>  <SMILES>  (2345) 
N[C@@H](Cc1(ccc(N)c(Cl)c1))C(=O)O

>  <INCHIKEY>  (2345) 
DUTUMPPEESUPFC-QMMMGPOBSA-N

$$$$
3Pal_2Cl_5Me
     RDKit          2D

 14 14  0  0  0  0  0  0  0  0999 V2000
   -1.4552    1.7882    0.0000 N   0  0  0  0  0  0  0  0  0  0  0  0
   -1.9325    0.3661    0.0000 C   0  0  0  0  0  0  0  0  0  0  0  0
   -0.9397   -0.7583    0.0000 C   0  0  0  0  0  0  0  0  0  0  0  0
    0.5305   -0.4606    0.0000 C   0  0  0  0  0  0  0  0  0  0  0  0
    1.0078    0.9614    0.0000 C   0  0  0  0  0  0  0  0  0  0  0  0
    2.4780    1.2591    0.0000 C   0  0  0  0  0  0  0  0  0  0  0  0
    2.9553    2.6811    0.0000 C   0  0  0  0  0  0  0  0  0  0  0  0
    3.4709    0.1347    0.0000 C   0  0  0  0  0  0  0  0  0  0  0  0
    2.9935   -1.2874    0.0000 N   0  0  0  0  0  0  0  0  0  0  0  0
    1.5234   -1.5850    0.0000 C   0  0  0  0  0  0  0  0  0  0  0  0
    1.0461   -3.0070    0.0000 Cl  0  0  0  0  0  0  0  0  0  0  0  0
   -3.4027    0.0685    0.0000 C   0  0  0  0  0  0  0  0  0  0  0  0
   -3.8800   -1.3536    0.0000 O   0  0  0  0  0  0  0  0  0  0  0  0
   -4.3955    1.1929    0.0000 O   0  0  0  0  0  0  0  0  0  0  0  0
  2  1  1  1
  2  3  1  0
  3  4  1  0
  4  5  1  0
  5  6  2  0
  6  7  1  0
  6  8  1  0
  8  9  2  0
  9 10  1  0
 10 11  1  0
  2 12  1  0
 12 13  2  0
 12 14  1  0
 10  4  2  0
M  END
>  <rName>  (2346) 
3Pal_2Cl_5Me

>  <PQ_SYMBOL>  (2346) 
3Pal_2Cl_5Me

>  <FULL_NAME>  (2346) 
(S)-2-amino-3-(2-chloro-5-methylpyridin-3-yl)propanoic acid

>  <IUPAC_CONDENSED>  (2346) 
3Pal(2-Cl,5-Me)

>  <IUPAC>  (2346) 
(2S)-2-amino-3-(2-chloro-5-methylpyridin-3-yl)propanoic acid

>  <TYPE>  (2346) 
Backbone

>  <CLASS>  (2346) 
alpha

>  <ANALOG>  (2346) 
Phe

>  <MOL_WT>  (2346) 
214.652

>  <LOGP>  (2346) 
0.9978199999999999

>  <TPSA>  (2346) 
76.21

>  <POPULARITY>  (2346) 
2.9

>  <PROTECTED>  (2346) 
TRUE

>  <SMILES>  (2346) 
N[C@@H](Cc1(cc(C)cnc1Cl))C(=O)O

>  <INCHIKEY>  (2346) 
YCCXDCAMYFQELY-ZETCQYMHSA-N

$$$$
4Pal_2Cl_5NH2
     RDKit          2D

 14 14  0  0  0  0  0  0  0  0999 V2000
   -1.4552    1.7882    0.0000 N   0  0  0  0  0  0  0  0  0  0  0  0
   -1.9325    0.3661    0.0000 C   0  0  0  0  0  0  0  0  0  0  0  0
   -0.9397   -0.7583    0.0000 C   0  0  0  0  0  0  0  0  0  0  0  0
    0.5305   -0.4606    0.0000 C   0  0  0  0  0  0  0  0  0  0  0  0
    1.0078    0.9614    0.0000 C   0  0  0  0  0  0  0  0  0  0  0  0
    2.4780    1.2591    0.0000 C   0  0  0  0  0  0  0  0  0  0  0  0
    2.9553    2.6811    0.0000 Cl  0  0  0  0  0  0  0  0  0  0  0  0
    3.4709    0.1347    0.0000 N   0  0  0  0  0  0  0  0  0  0  0  0
    2.9935   -1.2874    0.0000 C   0  0  0  0  0  0  0  0  0  0  0  0
    1.5234   -1.5850    0.0000 C   0  0  0  0  0  0  0  0  0  0  0  0
    1.0461   -3.0070    0.0000 N   0  0  0  0  0  0  0  0  0  0  0  0
   -3.4027    0.0685    0.0000 C   0  0  0  0  0  0  0  0  0  0  0  0
   -3.8800   -1.3536    0.0000 O   0  0  0  0  0  0  0  0  0  0  0  0
   -4.3955    1.1929    0.0000 O   0  0  0  0  0  0  0  0  0  0  0  0
  2  1  1  1
  2  3  1  0
  3  4  1  0
  4  5  1  0
  5  6  2  0
  6  7  1  0
  6  8  1  0
  8  9  2  0
  9 10  1  0
 10 11  1  0
  2 12  1  0
 12 13  2  0
 12 14  1  0
 10  4  2  0
M  END
>  <rName>  (2347) 
4Pal_2Cl_5NH2

>  <PQ_SYMBOL>  (2347) 
4Pal_2Cl_5NH2

>  <FULL_NAME>  (2347) 
(S)-2-amino-3-(5-amino-2-chloropyridin-4-yl)propanoic acid

>  <IUPAC_CONDENSED>  (2347) 
4Pal(2-Cl,5-NH2)

>  <IUPAC>  (2347) 
(2S)-2-amino-3-(5-amino-2-chloropyridin-4-yl)propanoic acid

>  <TYPE>  (2347) 
Backbone

>  <CLASS>  (2347) 
alpha

>  <ANALOG>  (2347) 
Phe

>  <MOL_WT>  (2347) 
215.64

>  <LOGP>  (2347) 
0.2716000000000001

>  <TPSA>  (2347) 
102.23

>  <POPULARITY>  (2347) 
2.2

>  <PROTECTED>  (2347) 
TRUE

>  <SMILES>  (2347) 
N[C@@H](Cc1(cc(Cl)ncc1N))C(=O)O

>  <INCHIKEY>  (2347) 
QQBUUHBDGJTWST-YFKPBYRVSA-N

$$$$
Ala_tetrahydroquinolinyl
     RDKit          2D

 16 17  0  0  0  0  0  0  0  0999 V2000
   -2.7457   -1.6512    0.0000 N   0  0  0  0  0  0  0  0  0  0  0  0
   -2.6203   -0.1565    0.0000 C   0  0  0  0  0  0  0  0  0  0  0  0
   -1.2631    0.4823    0.0000 C   0  0  0  0  0  0  0  0  0  0  0  0
   -0.0314   -0.3737    0.0000 N   0  0  0  0  0  0  0  0  0  0  0  0
   -0.1568   -1.8684    0.0000 C   0  0  0  0  0  0  0  0  0  0  0  0
    1.0750   -2.7244    0.0000 C   0  0  0  0  0  0  0  0  0  0  0  0
    2.4322   -2.0856    0.0000 C   0  0  0  0  0  0  0  0  0  0  0  0
    2.5576   -0.5909    0.0000 C   0  0  0  0  0  0  0  0  0  0  0  0
    3.9148    0.0479    0.0000 C   0  0  0  0  0  0  0  0  0  0  0  0
    4.0402    1.5426    0.0000 C   0  0  0  0  0  0  0  0  0  0  0  0
    2.8084    2.3986    0.0000 C   0  0  0  0  0  0  0  0  0  0  0  0
    1.4512    1.7598    0.0000 C   0  0  0  0  0  0  0  0  0  0  0  0
    1.3258    0.2651    0.0000 C   0  0  0  0  0  0  0  0  0  0  0  0
   -3.8521    0.6995    0.0000 C   0  0  0  0  0  0  0  0  0  0  0  0
   -3.7267    2.1942    0.0000 O   0  0  0  0  0  0  0  0  0  0  0  0
   -5.2093    0.0607    0.0000 O   0  0  0  0  0  0  0  0  0  0  0  0
  2  1  1  6
  2  3  1  0
  3  4  1  0
  4  5  1  0
  5  6  1  0
  6  7  1  0
  7  8  1  0
  8  9  2  0
  9 10  1  0
 10 11  2  0
 11 12  1  0
 12 13  2  0
  2 14  1  0
 14 15  2  0
 14 16  1  0
 13  8  1  0
 13  4  1  0
M  END
>  <rName>  (2348) 
Ala_tetrahydroquinolinyl

>  <PQ_SYMBOL>  (2348) 
Ala_tetrahydroquinolinyl

>  <FULL_NAME>  (2348) 
(S)-2-amino-3-(3,4-dihydroquinolin-1(2H)-yl)propanoic acid

>  <IUPAC_CONDENSED>  (2348) 
Ala(tetrahydroquinolinyl)

>  <IUPAC>  (2348) 
(2S)-2-amino-3-(2-azabicyclo[4.4.0]deca-1(10),6,8-trien-2-yl)propanoic acid

>  <TYPE>  (2348) 
Backbone

>  <CLASS>  (2348) 
alpha

>  <ANALOG>  (2348) 
X

>  <MOL_WT>  (2348) 
220.272

>  <LOGP>  (2348) 
0.8510999999999995

>  <TPSA>  (2348) 
66.56

>  <POPULARITY>  (2348) 
3.4

>  <PROTECTED>  (2348) 
TRUE

>  <SMILES>  (2348) 
N[C@@H](CN2(CCCc1(ccccc12)))C(=O)O

>  <INCHIKEY>  (2348) 
PDGLZBZYTYRBBE-JTQLQIEISA-N

$$$$
Ala_pyrazol4yl_1cPr
     RDKit          2D

 14 15  0  0  0  0  0  0  0  0999 V2000
    1.5358   -1.6205    0.0000 N   0  0  0  0  0  0  0  0  0  0  0  0
    2.3172   -0.3402    0.0000 C   0  0  0  0  0  0  0  0  0  0  0  0
    1.5991    0.9768    0.0000 C   0  0  0  0  0  0  0  0  0  0  0  0
    0.0995    1.0133    0.0000 C   0  0  0  0  0  0  0  0  0  0  0  0
   -0.7523    2.2480    0.0000 C   0  0  0  0  0  0  0  0  0  0  0  0
   -2.1898    1.8194    0.0000 N   0  0  0  0  0  0  0  0  0  0  0  0
   -2.2263    0.3198    0.0000 N   0  0  0  0  0  0  0  0  0  0  0  0
   -0.8115   -0.1783    0.0000 C   0  0  0  0  0  0  0  0  0  0  0  0
   -3.4610   -0.5320    0.0000 C   0  0  0  0  0  0  0  0  0  0  0  0
   -4.1043   -1.8871    0.0000 C   0  0  0  0  0  0  0  0  0  0  0  0
   -4.9561   -0.6524    0.0000 C   0  0  0  0  0  0  0  0  0  0  0  0
    3.8167   -0.3767    0.0000 C   0  0  0  0  0  0  0  0  0  0  0  0
    4.5982    0.9036    0.0000 O   0  0  0  0  0  0  0  0  0  0  0  0
    4.5349   -1.6937    0.0000 O   0  0  0  0  0  0  0  0  0  0  0  0
  2  1  1  1
  2  3  1  0
  3  4  1  0
  4  5  1  0
  5  6  2  0
  6  7  1  0
  7  8  1  0
  7  9  1  0
  9 10  1  0
 10 11  1  0
  2 12  1  0
 12 13  2  0
 12 14  1  0
  8  4  2  0
 11  9  1  0
M  END
>  <rName>  (2349) 
Ala_pyrazol4yl_1cPr

>  <PQ_SYMBOL>  (2349) 
Ala_pyrazol4yl_1cPr

>  <FULL_NAME>  (2349) 
(S)-2-amino-3-(1-cyclopropyl-1H-pyrazol-4-yl)propanoic acid

>  <IUPAC_CONDENSED>  (2349) 
Ala(pyrazol-4-yl(1-cPr))

>  <IUPAC>  (2349) 
(2S)-2-amino-3-(1-cyclopropyl-1H-pyrazol-4-yl)propanoic acid

>  <TYPE>  (2349) 
Backbone

>  <CLASS>  (2349) 
alpha

>  <ANALOG>  (2349) 
Phe

>  <MOL_WT>  (2349) 
195.22199999999995

>  <LOGP>  (2349) 
0.1723999999999996

>  <TPSA>  (2349) 
81.14

>  <POPULARITY>  (2349) 
3.7

>  <PROTECTED>  (2349) 
TRUE

>  <SMILES>  (2349) 
N[C@@H](Cc1(cnn(c1)C2(CC2)))C(=O)O

>  <INCHIKEY>  (2349) 
SLIYNMICHQBXBH-QMMMGPOBSA-N

$$$$
Phe_3CN_4Me
     RDKit          2D

 15 15  0  0  0  0  0  0  0  0999 V2000
   -2.5333    1.6163    0.0000 N   0  0  0  0  0  0  0  0  0  0  0  0
   -2.6860    0.1241    0.0000 C   0  0  0  0  0  0  0  0  0  0  0  0
   -1.4701   -0.7543    0.0000 C   0  0  0  0  0  0  0  0  0  0  0  0
   -0.1014   -0.1404    0.0000 C   0  0  0  0  0  0  0  0  0  0  0  0
    0.0513    1.3518    0.0000 C   0  0  0  0  0  0  0  0  0  0  0  0
    1.4199    1.9657    0.0000 C   0  0  0  0  0  0  0  0  0  0  0  0
    2.6358    1.0873    0.0000 C   0  0  0  0  0  0  0  0  0  0  0  0
    4.0045    1.7012    0.0000 C   0  0  0  0  0  0  0  0  0  0  0  0
    2.4832   -0.4049    0.0000 C   0  0  0  0  0  0  0  0  0  0  0  0
    3.6991   -1.2832    0.0000 C   0  0  0  0  0  0  0  0  0  0  0  0
    4.9151   -2.1615    0.0000 N   0  0  0  0  0  0  0  0  0  0  0  0
    1.1145   -1.0187    0.0000 C   0  0  0  0  0  0  0  0  0  0  0  0
   -4.0546   -0.4898    0.0000 C   0  0  0  0  0  0  0  0  0  0  0  0
   -4.2073   -1.9820    0.0000 O   0  0  0  0  0  0  0  0  0  0  0  0
   -5.2706    0.3885    0.0000 O   0  0  0  0  0  0  0  0  0  0  0  0
  2  1  1  1
  2  3  1  0
  3  4  1  0
  4  5  1  0
  5  6  2  0
  6  7  1  0
  7  8  1  0
  7  9  2  0
  9 10  1  0
 10 11  3  0
  9 12  1  0
  2 13  1  0
 13 14  2  0
 13 15  1  0
 12  4  2  0
M  END
>  <rName>  (2350) 
Phe_3CN_4Me

>  <PQ_SYMBOL>  (2350) 
Phe_3CN_4Me

>  <FULL_NAME>  (2350) 
(S)-2-amino-3-(3-cyano-4-methylphenyl)propanoic acid

>  <IUPAC_CONDENSED>  (2350) 
Phe(3-CN,4-Me)

>  <IUPAC>  (2350) 
(2S)-2-amino-3-(4-methyl-3-(nitrilomethyl)phenyl)propanoic acid

>  <TYPE>  (2350) 
Backbone

>  <CLASS>  (2350) 
alpha

>  <ANALOG>  (2350) 
Phe

>  <MOL_WT>  (2350) 
204.22899999999998

>  <LOGP>  (2350) 
0.8211000000000002

>  <TPSA>  (2350) 
87.11

>  <POPULARITY>  (2350) 
2.8

>  <PROTECTED>  (2350) 
TRUE

>  <SMILES>  (2350) 
N[C@@H](Cc1(ccc(C)c(C#N)c1))C(=O)O

>  <INCHIKEY>  (2350) 
DQPZTKGEXYFBSS-JTQLQIEISA-N

$$$$
D-hPhe_25diCl
     RDKit          2D

 15 15  0  0  0  0  0  0  0  0999 V2000
   -3.1338   -1.8409    0.0000 N   0  0  0  0  0  0  0  0  0  0  0  0
   -2.8232   -0.3734    0.0000 C   0  0  0  0  0  0  0  0  0  0  0  0
   -1.3970    0.0913    0.0000 C   0  0  0  0  0  0  0  0  0  0  0  0
   -0.2815   -0.9115    0.0000 C   0  0  0  0  0  0  0  0  0  0  0  0
    1.1447   -0.4467    0.0000 C   0  0  0  0  0  0  0  0  0  0  0  0
    1.4554    1.0207    0.0000 C   0  0  0  0  0  0  0  0  0  0  0  0
    2.8816    1.4855    0.0000 C   0  0  0  0  0  0  0  0  0  0  0  0
    3.1922    2.9530    0.0000 Cl  0  0  0  0  0  0  0  0  0  0  0  0
    3.9971    0.4827    0.0000 C   0  0  0  0  0  0  0  0  0  0  0  0
    3.6865   -0.9848    0.0000 C   0  0  0  0  0  0  0  0  0  0  0  0
    2.2603   -1.4495    0.0000 C   0  0  0  0  0  0  0  0  0  0  0  0
    1.9497   -2.9170    0.0000 Cl  0  0  0  0  0  0  0  0  0  0  0  0
   -3.9388    0.6293    0.0000 C   0  0  0  0  0  0  0  0  0  0  0  0
   -3.6281    2.0968    0.0000 O   0  0  0  0  0  0  0  0  0  0  0  0
   -5.3650    0.1646    0.0000 O   0  0  0  0  0  0  0  0  0  0  0  0
  2  1  1  1
  2  3  1  0
  3  4  1  0
  4  5  1  0
  5  6  1  0
  6  7  2  0
  7  8  1  0
  7  9  1  0
  9 10  2  0
 10 11  1  0
 11 12  1  0
  2 13  1  0
 13 14  2  0
 13 15  1  0
 11  5  2  0
M  END
>  <rName>  (2351) 
D-hPhe_25diCl

>  <PQ_SYMBOL>  (2351) 
D-hPhe_25diCl

>  <FULL_NAME>  (2351) 
(R)-2-amino-4-(2,5-dichlorophenyl)butanoic acid

>  <IUPAC_CONDENSED>  (2351) 
D-hPhe(2,5-diCl)

>  <IUPAC>  (2351) 
(2R)-2-amino-4-(2,5-dichlorophenyl)butanoic acid

>  <TYPE>  (2351) 
Backbone

>  <CLASS>  (2351) 
alpha

>  <ANALOG>  (2351) 
Phe

>  <MOL_WT>  (2351) 
248.10899999999998

>  <LOGP>  (2351) 
2.3379

>  <TPSA>  (2351) 
63.32000000000001

>  <POPULARITY>  (2351) 
3.3

>  <PROTECTED>  (2351) 
TRUE

>  <SMILES>  (2351) 
N[C@H](CCc1(cc(Cl)ccc1Cl))C(=O)O

>  <INCHIKEY>  (2351) 
RJEDYAFWGILHRM-SECBINFHSA-N

$$$$
N_333trifluoropropyl-G
     RDKit          2D

 11 10  0  0  0  0  0  0  0  0999 V2000
    0.9867   -0.2938    0.0000 N   0  0  0  0  0  0  0  0  0  0  0  0
   -0.3923    0.2963    0.0000 C   0  0  0  0  0  0  0  0  0  0  0  0
   -1.5929   -0.6029    0.0000 C   0  0  0  0  0  0  0  0  0  0  0  0
   -2.9719   -0.0127    0.0000 C   0  0  0  0  0  0  0  0  0  0  0  0
   -4.3510    0.5775    0.0000 F   0  0  0  0  0  0  0  0  0  0  0  0
   -3.5621   -1.3917    0.0000 F   0  0  0  0  0  0  0  0  0  0  0  0
   -2.3818    1.3663    0.0000 F   0  0  0  0  0  0  0  0  0  0  0  0
    2.1873    0.6054    0.0000 C   0  0  0  0  0  0  0  0  0  0  0  0
    3.5663    0.0152    0.0000 C   0  0  0  0  0  0  0  0  0  0  0  0
    3.7448   -1.4741    0.0000 O   0  0  0  0  0  0  0  0  0  0  0  0
    4.7669    0.9144    0.0000 O   0  0  0  0  0  0  0  0  0  0  0  0
  1  2  1  0
  2  3  1  0
  3  4  1  0
  4  5  1  0
  4  6  1  0
  4  7  1  0
  1  8  1  0
  8  9  1  0
  9 10  2  0
  9 11  1  0
M  END
>  <rName>  (2352) 
N_333trifluoropropyl-G

>  <PQ_SYMBOL>  (2352) 
N_333trifluoropropyl-G

>  <FULL_NAME>  (2352) 
(3,3,3-trifluoropropyl)glycine

>  <IUPAC_CONDENSED>  (2352) 
3,3,3-trifluoropropyl-Gly

>  <IUPAC>  (2352) 
2-((3,3,3-trifluoropropyl)amino)acetic acid

>  <TYPE>  (2352) 
Backbone

>  <CLASS>  (2352) 
alpha

>  <ANALOG>  (2352) 
Gly

>  <MOL_WT>  (2352) 
171.11800000000002

>  <LOGP>  (2352) 
0.6130000000000001

>  <TPSA>  (2352) 
49.33

>  <POPULARITY>  (2352) 
9.7

>  <PROTECTED>  (2352) 
TRUE

>  <SMILES>  (2352) 
N(CCC(F)(F)F)CC(=O)O

>  <INCHIKEY>  (2352) 
KCQRFKWRWFPJPB-UHFFFAOYSA-N

$$$$
Phe_35diF_4OMe
     RDKit          2D

 16 16  0  0  0  0  0  0  0  0999 V2000
   -2.4330    1.6061    0.0000 N   0  0  0  0  0  0  0  0  0  0  0  0
   -2.8129    0.1551    0.0000 C   0  0  0  0  0  0  0  0  0  0  0  0
   -1.7462   -0.8995    0.0000 C   0  0  0  0  0  0  0  0  0  0  0  0
   -0.2996   -0.5030    0.0000 C   0  0  0  0  0  0  0  0  0  0  0  0
    0.0804    0.9481    0.0000 C   0  0  0  0  0  0  0  0  0  0  0  0
    1.5270    1.3446    0.0000 C   0  0  0  0  0  0  0  0  0  0  0  0
    1.9070    2.7956    0.0000 F   0  0  0  0  0  0  0  0  0  0  0  0
    2.5937    0.2900    0.0000 C   0  0  0  0  0  0  0  0  0  0  0  0
    4.0404    0.6865    0.0000 O   0  0  0  0  0  0  0  0  0  0  0  0
    5.1071   -0.3681    0.0000 C   0  0  0  0  0  0  0  0  0  0  0  0
    2.2138   -1.1611    0.0000 C   0  0  0  0  0  0  0  0  0  0  0  0
    3.2805   -2.2157    0.0000 F   0  0  0  0  0  0  0  0  0  0  0  0
    0.7671   -1.5576    0.0000 C   0  0  0  0  0  0  0  0  0  0  0  0
   -4.2596   -0.2414    0.0000 C   0  0  0  0  0  0  0  0  0  0  0  0
   -4.6395   -1.6925    0.0000 O   0  0  0  0  0  0  0  0  0  0  0  0
   -5.3263    0.8131    0.0000 O   0  0  0  0  0  0  0  0  0  0  0  0
  2  1  1  1
  2  3  1  0
  3  4  1  0
  4  5  2  0
  5  6  1  0
  6  7  1  0
  6  8  2  0
  8  9  1  0
  9 10  1  0
  8 11  1  0
 11 12  1  0
 11 13  2  0
  2 14  1  0
 14 15  2  0
 14 16  1  0
 13  4  1  0
M  END
>  <rName>  (2353) 
Phe_35diF_4OMe

>  <PQ_SYMBOL>  (2353) 
Phe_35diF_4OMe

>  <FULL_NAME>  (2353) 
(S)-2-amino-3-(3,5-difluoro-4-methoxyphenyl)propanoic acid

>  <IUPAC_CONDENSED>  (2353) 
Phe(3,5-diF,4-OMe)

>  <IUPAC>  (2353) 
(2S)-2-amino-3-(3,5-difluoro-4-methoxyphenyl)propanoic acid

>  <TYPE>  (2353) 
Backbone

>  <CLASS>  (2353) 
alpha

>  <ANALOG>  (2353) 
Tyr

>  <MOL_WT>  (2353) 
231.19799999999998

>  <LOGP>  (2353) 
0.9278

>  <TPSA>  (2353) 
72.55

>  <POPULARITY>  (2353) 
3

>  <PROTECTED>  (2353) 
TRUE

>  <SMILES>  (2353) 
N[C@@H](Cc1(cc(F)c(OC)c(F)c1))C(=O)O

>  <INCHIKEY>  (2353) 
CWCYNBXXDKLYGK-QMMMGPOBSA-N

$$$$
Phe_3Cl_5CN
     RDKit          2D

 15 15  0  0  0  0  0  0  0  0999 V2000
   -2.3873    1.4733    0.0000 N   0  0  0  0  0  0  0  0  0  0  0  0
   -2.5238   -0.0205    0.0000 C   0  0  0  0  0  0  0  0  0  0  0  0
   -1.2984   -0.8855    0.0000 C   0  0  0  0  0  0  0  0  0  0  0  0
    0.0635   -0.2568    0.0000 C   0  0  0  0  0  0  0  0  0  0  0  0
    0.2000    1.2369    0.0000 C   0  0  0  0  0  0  0  0  0  0  0  0
    1.5619    1.8656    0.0000 C   0  0  0  0  0  0  0  0  0  0  0  0
    1.6983    3.3594    0.0000 Cl  0  0  0  0  0  0  0  0  0  0  0  0
    2.7873    1.0006    0.0000 C   0  0  0  0  0  0  0  0  0  0  0  0
    2.6508   -0.4932    0.0000 C   0  0  0  0  0  0  0  0  0  0  0  0
    3.8762   -1.3583    0.0000 C   0  0  0  0  0  0  0  0  0  0  0  0
    5.1016   -2.2234    0.0000 N   0  0  0  0  0  0  0  0  0  0  0  0
    1.2889   -1.1219    0.0000 C   0  0  0  0  0  0  0  0  0  0  0  0
   -3.8857   -0.6492    0.0000 C   0  0  0  0  0  0  0  0  0  0  0  0
   -4.0222   -2.1429    0.0000 O   0  0  0  0  0  0  0  0  0  0  0  0
   -5.1111    0.2159    0.0000 O   0  0  0  0  0  0  0  0  0  0  0  0
  2  1  1  1
  2  3  1  0
  3  4  1  0
  4  5  2  0
  5  6  1  0
  6  7  1  0
  6  8  2  0
  8  9  1  0
  9 10  1  0
 10 11  3  0
  9 12  2  0
  2 13  1  0
 13 14  2  0
 13 15  1  0
 12  4  1  0
M  END
>  <rName>  (2354) 
Phe_3Cl_5CN

>  <PQ_SYMBOL>  (2354) 
Phe_3Cl_5CN

>  <FULL_NAME>  (2354) 
(S)-2-amino-3-(3-chloro-5-cyanophenyl)propanoic acid

>  <IUPAC_CONDENSED>  (2354) 
Phe(3-Cl,5-CN)

>  <IUPAC>  (2354) 
(2S)-2-amino-3-(3-chloro-5-(nitrilomethyl)phenyl)propanoic acid

>  <TYPE>  (2354) 
Backbone

>  <CLASS>  (2354) 
alpha

>  <ANALOG>  (2354) 
Phe

>  <MOL_WT>  (2354) 
224.647

>  <LOGP>  (2354) 
1.16608

>  <TPSA>  (2354) 
87.11

>  <POPULARITY>  (2354) 
2.2

>  <PROTECTED>  (2354) 
TRUE

>  <SMILES>  (2354) 
N[C@@H](Cc1(cc(Cl)cc(C#N)c1))C(=O)O

>  <INCHIKEY>  (2354) 
OLWLLUIKXILTAR-VIFPVBQESA-N

$$$$
2Pal_4NH2
     RDKit          2D

 13 13  0  0  0  0  0  0  0  0999 V2000
   -1.2997    1.6200    0.0000 N   0  0  0  0  0  0  0  0  0  0  0  0
   -1.8436    0.2221    0.0000 C   0  0  0  0  0  0  0  0  0  0  0  0
   -0.9049   -0.9479    0.0000 C   0  0  0  0  0  0  0  0  0  0  0  0
    0.5777   -0.7200    0.0000 C   0  0  0  0  0  0  0  0  0  0  0  0
    1.1215    0.6779    0.0000 C   0  0  0  0  0  0  0  0  0  0  0  0
    2.6041    0.9059    0.0000 C   0  0  0  0  0  0  0  0  0  0  0  0
    3.1480    2.3038    0.0000 N   0  0  0  0  0  0  0  0  0  0  0  0
    3.5428   -0.2641    0.0000 C   0  0  0  0  0  0  0  0  0  0  0  0
    2.9989   -1.6621    0.0000 C   0  0  0  0  0  0  0  0  0  0  0  0
    1.5163   -1.8900    0.0000 N   0  0  0  0  0  0  0  0  0  0  0  0
   -3.3262   -0.0059    0.0000 C   0  0  0  0  0  0  0  0  0  0  0  0
   -3.8701   -1.4038    0.0000 O   0  0  0  0  0  0  0  0  0  0  0  0
   -4.2649    1.1641    0.0000 O   0  0  0  0  0  0  0  0  0  0  0  0
  2  1  1  1
  2  3  1  0
  3  4  1  0
  4  5  1  0
  5  6  2  0
  6  7  1  0
  6  8  1  0
  8  9  2  0
  9 10  1  0
  2 11  1  0
 11 12  2  0
 11 13  1  0
 10  4  2  0
M  END
>  <rName>  (2355) 
2Pal_4NH2

>  <PQ_SYMBOL>  (2355) 
2Pal_4NH2

>  <FULL_NAME>  (2355) 
(S)-2-amino-3-(4-aminopyridin-2-yl)propanoic acid

>  <IUPAC_CONDENSED>  (2355) 
2Pal(4-NH2)

>  <IUPAC>  (2355) 
(2S)-2-amino-3-(4-aminopyridin-2-yl)propanoic acid

>  <TYPE>  (2355) 
Backbone

>  <CLASS>  (2355) 
alpha

>  <ANALOG>  (2355) 
Phe

>  <MOL_WT>  (2355) 
181.19499999999996

>  <LOGP>  (2355) 
-0.38180000000000064

>  <TPSA>  (2355) 
102.23

>  <POPULARITY>  (2355) 
2.9

>  <PROTECTED>  (2355) 
TRUE

>  <SMILES>  (2355) 
N[C@@H](Cc1(cc(N)ccn1))C(=O)O

>  <INCHIKEY>  (2355) 
OEMKPBDAUUIRBT-ZETCQYMHSA-N

$$$$
Phe_26diiPr
     RDKit          2D

 18 18  0  0  0  0  0  0  0  0999 V2000
    2.1587    0.6549    0.0000 N   0  0  0  0  0  0  0  0  0  0  0  0
    1.8455   -0.3928    0.0000 C   0  0  0  0  0  0  0  0  0  0  0  0
    0.4392   -0.9147    0.0000 C   0  0  0  0  0  0  0  0  0  0  0  0
   -0.7159    0.0422    0.0000 C   0  0  0  0  0  0  0  0  0  0  0  0
   -2.1222   -0.4796    0.0000 C   0  0  0  0  0  0  0  0  0  0  0  0
   -3.2773    0.4773    0.0000 C   0  0  0  0  0  0  0  0  0  0  0  0
   -3.0261    1.9561    0.0000 C   0  0  0  0  0  0  0  0  0  0  0  0
   -1.6198    2.4780    0.0000 C   0  0  0  0  0  0  0  0  0  0  0  0
   -0.4647    1.5211    0.0000 C   0  0  0  0  0  0  0  0  0  0  0  0
    0.9416    2.0429    0.0000 C   0  0  0  0  0  0  0  0  0  0  0  0
    1.8624    1.4532    0.0000 C   0  0  0  0  0  0  0  0  0  0  0  0
    1.1928    3.5218    0.0000 C   0  0  0  0  0  0  0  0  0  0  0  0
   -2.3733   -1.9585    0.0000 C   0  0  0  0  0  0  0  0  0  0  0  0
   -3.7796   -2.4803    0.0000 C   0  0  0  0  0  0  0  0  0  0  0  0
   -1.2182   -2.9154    0.0000 C   0  0  0  0  0  0  0  0  0  0  0  0
    3.0006   -1.3498    0.0000 C   0  0  0  0  0  0  0  0  0  0  0  0
    2.7494   -2.8286    0.0000 O   0  0  0  0  0  0  0  0  0  0  0  0
    4.4069   -0.8279    0.0000 O   0  0  0  0  0  0  0  0  0  0  0  0
  2  1  1  6
  2  3  1  0
  3  4  1  0
  4  5  1  0
  5  6  2  0
  6  7  1  0
  7  8  2  0
  8  9  1  0
  9 10  1  0
 10 11  1  0
 10 12  1  0
  5 13  1  0
 13 14  1  0
 13 15  1  0
  2 16  1  0
 16 17  2  0
 16 18  1  0
  9  4  2  0
M  END
>  <rName>  (2356) 
Phe_26diiPr

>  <PQ_SYMBOL>  (2356) 
Phe_26diiPr

>  <FULL_NAME>  (2356) 
(S)-2-amino-3-(2,6-diisopropylphenyl)propanoic acid

>  <IUPAC_CONDENSED>  (2356) 
Phe(2,6-diiPr)

>  <IUPAC>  (2356) 
(2S)-2-amino-3-(2,6-bis(propan-2-yl)phenyl)propanoic acid

>  <TYPE>  (2356) 
Backbone

>  <CLASS>  (2356) 
alpha

>  <ANALOG>  (2356) 
Phe

>  <MOL_WT>  (2356) 
249.35399999999996

>  <LOGP>  (2356) 
2.8878000000000013

>  <TPSA>  (2356) 
63.32000000000001

>  <POPULARITY>  (2356) 
3.2

>  <PROTECTED>  (2356) 
TRUE

>  <SMILES>  (2356) 
N[C@@H](Cc1(c(cccc1C(C)C)C(C)C))C(=O)O

>  <INCHIKEY>  (2356) 
YDMAGWQQPAPUMK-AWEZNQCLSA-N

$$$$
Phe_2OCF3_5NO2
     RDKit          2D

 20 20  0  0  0  0  0  0  0  0999 V2000
   -3.2263    0.0935    0.0000 N   0  0  0  0  0  0  0  0  0  0  0  0
   -2.5679   -1.2543    0.0000 C   0  0  0  0  0  0  0  0  0  0  0  0
   -1.0715   -1.3581    0.0000 C   0  0  0  0  0  0  0  0  0  0  0  0
   -0.2334   -0.1140    0.0000 C   0  0  0  0  0  0  0  0  0  0  0  0
   -0.8918    1.2338    0.0000 C   0  0  0  0  0  0  0  0  0  0  0  0
   -0.0537    2.4778    0.0000 C   0  0  0  0  0  0  0  0  0  0  0  0
    1.4427    2.3741    0.0000 C   0  0  0  0  0  0  0  0  0  0  0  0
    2.1010    1.0262    0.0000 C   0  0  0  0  0  0  0  0  0  0  0  0
    1.2630   -0.2178    0.0000 C   0  0  0  0  0  0  0  0  0  0  0  0
    1.9213   -1.5656    0.0000 O   0  0  0  0  0  0  0  0  0  0  0  0
    3.4177   -1.6694    0.0000 C   0  0  0  0  0  0  0  0  0  0  0  0
    4.9141   -1.7731    0.0000 F   0  0  0  0  0  0  0  0  0  0  0  0
    3.3139   -3.1658    0.0000 F   0  0  0  0  0  0  0  0  0  0  0  0
    3.5215   -0.1730    0.0000 F   0  0  0  0  0  0  0  0  0  0  0  0
   -0.7121    3.8256    0.0000 N   0  0  0  0  0  0  0  0  0  0  0  0
   -2.2085    3.9294    0.0000 O   0  0  0  0  0  0  0  0  0  0  0  0
    0.1260    5.0697    0.0000 O   0  0  0  0  0  0  0  0  0  0  0  0
   -3.4060   -2.4983    0.0000 C   0  0  0  0  0  0  0  0  0  0  0  0
   -2.7477   -3.8462    0.0000 O   0  0  0  0  0  0  0  0  0  0  0  0
   -4.9024   -2.3946    0.0000 O   0  0  0  0  0  0  0  0  0  0  0  0
  2  1  1  1
  2  3  1  0
  3  4  1  0
  4  5  1  0
  5  6  2  0
  6  7  1  0
  7  8  2  0
  8  9  1  0
  9 10  1  0
 10 11  1  0
 11 12  1  0
 11 13  1  0
 11 14  1  0
  6 15  1  0
 15 16  2  0
 15 17  1  0
  2 18  1  0
 18 19  2  0
 18 20  1  0
  9  4  2  0
M  CHG  2  15   1  17  -1
M  END
>  <rName>  (2357) 
Phe_2OCF3_5NO2

>  <PQ_SYMBOL>  (2357) 
Phe_2OCF3_5NO2

>  <FULL_NAME>  (2357) 
(S)-2-amino-3-(5-nitro-2-(trifluoromethoxy)phenyl)propanoic acid

>  <IUPAC_CONDENSED>  (2357) 
Phe(2-OCF3,5-NO2)

>  <IUPAC>  (2357) 
(2S)-2-amino-3-(5-nitro-2-((trifluoromethyl)oxy)phenyl)propanoic acid

>  <TYPE>  (2357) 
Backbone

>  <CLASS>  (2357) 
alpha

>  <ANALOG>  (2357) 
Tyr

>  <MOL_WT>  (2357) 
294.18499999999995

>  <LOGP>  (2357) 
1.4478

>  <TPSA>  (2357) 
115.69000000000001

>  <POPULARITY>  (2357) 
2.2

>  <PROTECTED>  (2357) 
TRUE

>  <SMILES>  (2357) 
N[C@@H](Cc1(cc(ccc1OC(F)(F)F)[N+](=O)[O-]))C(=O)O

>  <INCHIKEY>  (2357) 
MYHGAVZFZLMLIP-ZETCQYMHSA-N

$$$$
Tyr_3Cbz
     RDKit          2D

 23 24  0  0  0  0  0  0  0  0999 V2000
   -5.4043   -0.0301    0.0000 N   0  0  0  0  0  0  0  0  0  0  0  0
   -4.5287   -1.2479    0.0000 C   0  0  0  0  0  0  0  0  0  0  0  0
   -3.0361   -1.0986    0.0000 C   0  0  0  0  0  0  0  0  0  0  0  0
   -2.4192    0.2687    0.0000 C   0  0  0  0  0  0  0  0  0  0  0  0
   -3.2949    1.4866    0.0000 C   0  0  0  0  0  0  0  0  0  0  0  0
   -2.6780    2.8539    0.0000 C   0  0  0  0  0  0  0  0  0  0  0  0
   -1.1854    3.0033    0.0000 C   0  0  0  0  0  0  0  0  0  0  0  0
   -0.5685    4.3705    0.0000 O   0  0  0  0  0  0  0  0  0  0  0  0
   -0.3098    1.7854    0.0000 C   0  0  0  0  0  0  0  0  0  0  0  0
   -0.9267    0.4181    0.0000 C   0  0  0  0  0  0  0  0  0  0  0  0
    1.1828    1.9348    0.0000 C   0  0  0  0  0  0  0  0  0  0  0  0
    1.7997    3.3020    0.0000 O   0  0  0  0  0  0  0  0  0  0  0  0
    2.0584    0.7169    0.0000 O   0  0  0  0  0  0  0  0  0  0  0  0
    3.5509    0.8663    0.0000 C   0  0  0  0  0  0  0  0  0  0  0  0
    4.4266   -0.3516    0.0000 C   0  0  0  0  0  0  0  0  0  0  0  0
    3.8097   -1.7189    0.0000 C   0  0  0  0  0  0  0  0  0  0  0  0
    4.6853   -2.9368    0.0000 C   0  0  0  0  0  0  0  0  0  0  0  0
    6.1779   -2.7874    0.0000 C   0  0  0  0  0  0  0  0  0  0  0  0
    6.7948   -1.4201    0.0000 C   0  0  0  0  0  0  0  0  0  0  0  0
    5.9191   -0.2022    0.0000 C   0  0  0  0  0  0  0  0  0  0  0  0
   -5.1456   -2.6152    0.0000 C   0  0  0  0  0  0  0  0  0  0  0  0
   -4.2699   -3.8331    0.0000 O   0  0  0  0  0  0  0  0  0  0  0  0
   -6.6381   -2.7646    0.0000 O   0  0  0  0  0  0  0  0  0  0  0  0
  2  1  1  1
  2  3  1  0
  3  4  1  0
  4  5  1  0
  5  6  2  0
  6  7  1  0
  7  8  1  0
  7  9  2  0
  9 10  1  0
  9 11  1  0
 11 12  2  0
 11 13  1  0
 13 14  1  0
 14 15  1  0
 15 16  2  0
 16 17  1  0
 17 18  2  0
 18 19  1  0
 19 20  2  0
  2 21  1  0
 21 22  2  0
 21 23  1  0
 10  4  2  0
 20 15  1  0
M  END
>  <rName>  (2358) 
Tyr_3Cbz

>  <PQ_SYMBOL>  (2358) 
Tyr_3Cbz

>  <FULL_NAME>  (2358) 
(S)-2-amino-3-(3-((benzyloxy)carbonyl)-4-hydroxyphenyl)propanoic acid

>  <IUPAC_CONDENSED>  (2358) 
Tyr(3-Cbz)

>  <IUPAC>  (2358) 
(2S)-2-amino-3-(3-(benzyloxyformyl)-4-hydroxyphenyl)propanoic acid

>  <TYPE>  (2358) 
Backbone

>  <CLASS>  (2358) 
alpha

>  <ANALOG>  (2358) 
Tyr

>  <MOL_WT>  (2358) 
315.325

>  <LOGP>  (2358) 
1.7036

>  <TPSA>  (2358) 
109.85000000000001

>  <POPULARITY>  (2358) 
3.1

>  <PROTECTED>  (2358) 
TRUE

>  <SMILES>  (2358) 
N[C@@H](Cc1(ccc(O)c(c1)C(=O)OCc2(ccccc2)))C(=O)O

>  <INCHIKEY>  (2358) 
PLPGAKWCWRPBGY-AWEZNQCLSA-N

$$$$
Ala_indan2yl
     RDKit          2D

 15 16  0  0  0  0  0  0  0  0999 V2000
   -2.2312    1.6742    0.0000 N   0  0  0  0  0  0  0  0  0  0  0  0
   -2.7125    0.2535    0.0000 C   0  0  0  0  0  0  0  0  0  0  0  0
   -1.7228   -0.8736    0.0000 C   0  0  0  0  0  0  0  0  0  0  0  0
   -0.2518   -0.5801    0.0000 C   0  0  0  0  0  0  0  0  0  0  0  0
    0.8503   -1.5976    0.0000 C   0  0  0  0  0  0  0  0  0  0  0  0
    2.1586   -0.8639    0.0000 C   0  0  0  0  0  0  0  0  0  0  0  0
    3.5793   -1.3452    0.0000 C   0  0  0  0  0  0  0  0  0  0  0  0
    4.7064   -0.3555    0.0000 C   0  0  0  0  0  0  0  0  0  0  0  0
    4.4129    1.1155    0.0000 C   0  0  0  0  0  0  0  0  0  0  0  0
    2.9922    1.5968    0.0000 C   0  0  0  0  0  0  0  0  0  0  0  0
    1.8650    0.6071    0.0000 C   0  0  0  0  0  0  0  0  0  0  0  0
    0.3753    0.7825    0.0000 C   0  0  0  0  0  0  0  0  0  0  0  0
   -4.1835   -0.0400    0.0000 C   0  0  0  0  0  0  0  0  0  0  0  0
   -4.6648   -1.4607    0.0000 O   0  0  0  0  0  0  0  0  0  0  0  0
   -5.1732    1.0872    0.0000 O   0  0  0  0  0  0  0  0  0  0  0  0
  2  1  1  1
  2  3  1  0
  3  4  1  0
  4  5  1  0
  5  6  1  0
  6  7  2  0
  7  8  1  0
  8  9  2  0
  9 10  1  0
 10 11  2  0
 11 12  1  0
  2 13  1  0
 13 14  2  0
 13 15  1  0
 11  6  1  0
 12  4  1  0
M  END
>  <rName>  (2359) 
Ala_indan2yl

>  <PQ_SYMBOL>  (2359) 
Ala_indan2yl

>  <FULL_NAME>  (2359) 
(S)-2-amino-3-(2,3-dihydro-1H-inden-2-yl)propanoic acid

>  <IUPAC_CONDENSED>  (2359) 
Ala(indan-2-yl)

>  <IUPAC>  (2359) 
(2S)-2-amino-3-(indan-2-yl)propanoic acid

>  <TYPE>  (2359) 
Backbone

>  <CLASS>  (2359) 
alpha

>  <ANALOG>  (2359) 
X

>  <MOL_WT>  (2359) 
205.25699999999998

>  <LOGP>  (2359) 
1.2034

>  <TPSA>  (2359) 
63.32000000000001

>  <POPULARITY>  (2359) 
3.9

>  <PROTECTED>  (2359) 
TRUE

>  <SMILES>  (2359) 
N[C@@H](CC2(Cc1(ccccc1C2)))C(=O)O

>  <INCHIKEY>  (2359) 
SJDOJKYZOIOVSC-NSHDSACASA-N

$$$$
Phe_2Me_6Cl
     RDKit          2D

 14 14  0  0  0  0  0  0  0  0999 V2000
    1.4856    1.6416    0.0000 N   0  0  0  0  0  0  0  0  0  0  0  0
    1.7624    0.1673    0.0000 C   0  0  0  0  0  0  0  0  0  0  0  0
    0.6240   -0.8095    0.0000 C   0  0  0  0  0  0  0  0  0  0  0  0
   -0.7911   -0.3120    0.0000 C   0  0  0  0  0  0  0  0  0  0  0  0
   -1.9295   -1.2888    0.0000 C   0  0  0  0  0  0  0  0  0  0  0  0
   -1.6527   -2.7631    0.0000 C   0  0  0  0  0  0  0  0  0  0  0  0
   -3.3446   -0.7913    0.0000 C   0  0  0  0  0  0  0  0  0  0  0  0
   -3.6213    0.6829    0.0000 C   0  0  0  0  0  0  0  0  0  0  0  0
   -2.4830    1.6597    0.0000 C   0  0  0  0  0  0  0  0  0  0  0  0
   -1.0678    1.1622    0.0000 C   0  0  0  0  0  0  0  0  0  0  0  0
    0.0705    2.1390    0.0000 Cl  0  0  0  0  0  0  0  0  0  0  0  0
    3.1775   -0.3302    0.0000 C   0  0  0  0  0  0  0  0  0  0  0  0
    3.4542   -1.8044    0.0000 O   0  0  0  0  0  0  0  0  0  0  0  0
    4.3158    0.6466    0.0000 O   0  0  0  0  0  0  0  0  0  0  0  0
  2  1  1  6
  2  3  1  0
  3  4  1  0
  4  5  2  0
  5  6  1  0
  5  7  1  0
  7  8  2  0
  8  9  1  0
  9 10  2  0
 10 11  1  0
  2 12  1  0
 12 13  2  0
 12 14  1  0
 10  4  1  0
M  END
>  <rName>  (2360) 
Phe_2Me_6Cl

>  <PQ_SYMBOL>  (2360) 
Phe_2Me_6Cl

>  <FULL_NAME>  (2360) 
(S)-2-amino-3-(2-chloro-6-methylphenyl)propanoic acid

>  <IUPAC_CONDENSED>  (2360) 
Phe(2-Me,6-Cl)

>  <IUPAC>  (2360) 
(2S)-2-amino-3-(2-chloro-6-methylphenyl)propanoic acid

>  <TYPE>  (2360) 
Backbone

>  <CLASS>  (2360) 
alpha

>  <ANALOG>  (2360) 
Phe

>  <MOL_WT>  (2360) 
213.66399999999996

>  <LOGP>  (2360) 
1.6028200000000004

>  <TPSA>  (2360) 
63.32000000000001

>  <POPULARITY>  (2360) 
3

>  <PROTECTED>  (2360) 
TRUE

>  <SMILES>  (2360) 
N[C@@H](Cc1(c(C)cccc1Cl))C(=O)O

>  <INCHIKEY>  (2360) 
JPTASNSNGGFCES-VIFPVBQESA-N

$$$$
Phe_24diF_3CO2H
     RDKit          2D

 17 17  0  0  0  0  0  0  0  0999 V2000
   -2.8633    1.7512    0.0000 N   0  0  0  0  0  0  0  0  0  0  0  0
   -2.9695    0.2550    0.0000 C   0  0  0  0  0  0  0  0  0  0  0  0
   -1.7269   -0.5851    0.0000 C   0  0  0  0  0  0  0  0  0  0  0  0
   -0.3780    0.0711    0.0000 C   0  0  0  0  0  0  0  0  0  0  0  0
   -0.2718    1.5673    0.0000 C   0  0  0  0  0  0  0  0  0  0  0  0
    1.0771    2.2234    0.0000 C   0  0  0  0  0  0  0  0  0  0  0  0
    2.3198    1.3833    0.0000 C   0  0  0  0  0  0  0  0  0  0  0  0
    3.6687    2.0395    0.0000 F   0  0  0  0  0  0  0  0  0  0  0  0
    2.2136   -0.1129    0.0000 C   0  0  0  0  0  0  0  0  0  0  0  0
    3.4562   -0.9530    0.0000 C   0  0  0  0  0  0  0  0  0  0  0  0
    4.8051   -0.2968    0.0000 O   0  0  0  0  0  0  0  0  0  0  0  0
    3.3500   -2.4492    0.0000 O   0  0  0  0  0  0  0  0  0  0  0  0
    0.8647   -0.7690    0.0000 C   0  0  0  0  0  0  0  0  0  0  0  0
    0.7585   -2.2653    0.0000 F   0  0  0  0  0  0  0  0  0  0  0  0
   -4.3184   -0.4011    0.0000 C   0  0  0  0  0  0  0  0  0  0  0  0
   -4.4246   -1.8974    0.0000 O   0  0  0  0  0  0  0  0  0  0  0  0
   -5.5611    0.4390    0.0000 O   0  0  0  0  0  0  0  0  0  0  0  0
  2  1  1  1
  2  3  1  0
  3  4  1  0
  4  5  1  0
  5  6  2  0
  6  7  1  0
  7  8  1  0
  7  9  2  0
  9 10  1  0
 10 11  2  0
 10 12  1  0
  9 13  1  0
 13 14  1  0
  2 15  1  0
 15 16  2  0
 15 17  1  0
 13  4  2  0
M  END
>  <rName>  (2361) 
Phe_24diF_3CO2H

>  <PQ_SYMBOL>  (2361) 
Phe_24diF_3CO2H

>  <FULL_NAME>  (2361) 
(S)-3-(2-amino-2-carboxyethyl)-2,6-difluorobenzoic acid

>  <IUPAC_CONDENSED>  (2361) 
Phe(2,4-diF,3-CO2H)

>  <IUPAC>  (2361) 
3-((2S)-2-amino-3-hydroxy-3-oxopropyl)-2,6-difluorobenzene-1-carboxylic acid

>  <TYPE>  (2361) 
Backbone

>  <CLASS>  (2361) 
alpha

>  <ANALOG>  (2361) 
Phe

>  <MOL_WT>  (2361) 
245.18099999999995

>  <LOGP>  (2361) 
0.6174000000000001

>  <TPSA>  (2361) 
100.62000000000002

>  <POPULARITY>  (2361) 
2.2

>  <PROTECTED>  (2361) 
TRUE

>  <SMILES>  (2361) 
N[C@@H](Cc1(ccc(F)c(C(=O)O)c1F))C(=O)O

>  <INCHIKEY>  (2361) 
ODFXBHCQEVUFAQ-LURJTMIESA-N

$$$$
Phe_35diMe_4NH2
     RDKit          2D

 15 15  0  0  0  0  0  0  0  0999 V2000
   -2.0609    1.6226    0.0000 N   0  0  0  0  0  0  0  0  0  0  0  0
   -2.4694    0.1793    0.0000 C   0  0  0  0  0  0  0  0  0  0  0  0
   -1.4237   -0.8961    0.0000 C   0  0  0  0  0  0  0  0  0  0  0  0
    0.0305   -0.5283    0.0000 C   0  0  0  0  0  0  0  0  0  0  0  0
    0.4390    0.9150    0.0000 C   0  0  0  0  0  0  0  0  0  0  0  0
    1.8932    1.2829    0.0000 C   0  0  0  0  0  0  0  0  0  0  0  0
    2.3017    2.7262    0.0000 C   0  0  0  0  0  0  0  0  0  0  0  0
    2.9389    0.2075    0.0000 C   0  0  0  0  0  0  0  0  0  0  0  0
    4.3931    0.5753    0.0000 N   0  0  0  0  0  0  0  0  0  0  0  0
    2.5304   -1.2358    0.0000 C   0  0  0  0  0  0  0  0  0  0  0  0
    3.5760   -2.3113    0.0000 C   0  0  0  0  0  0  0  0  0  0  0  0
    1.0762   -1.6037    0.0000 C   0  0  0  0  0  0  0  0  0  0  0  0
   -3.9236   -0.1886    0.0000 C   0  0  0  0  0  0  0  0  0  0  0  0
   -4.3321   -1.6319    0.0000 O   0  0  0  0  0  0  0  0  0  0  0  0
   -4.9693    0.8868    0.0000 O   0  0  0  0  0  0  0  0  0  0  0  0
  2  1  1  1
  2  3  1  0
  3  4  1  0
  4  5  2  0
  5  6  1  0
  6  7  1  0
  6  8  2  0
  8  9  1  0
  8 10  1  0
 10 11  1  0
 10 12  2  0
  2 13  1  0
 13 14  2  0
 13 15  1  0
 12  4  1  0
M  END
>  <rName>  (2362) 
Phe_35diMe_4NH2

>  <PQ_SYMBOL>  (2362) 
Phe_35diMe_4NH2

>  <FULL_NAME>  (2362) 
(S)-2-amino-3-(4-amino-3,5-dimethylphenyl)propanoic acid

>  <IUPAC_CONDENSED>  (2362) 
Phe(3,5-diMe,4-NH2)

>  <IUPAC>  (2362) 
(2S)-2-amino-3-(4-amino-3,5-dimethylphenyl)propanoic acid

>  <TYPE>  (2362) 
Backbone

>  <CLASS>  (2362) 
alpha

>  <ANALOG>  (2362) 
Phe

>  <MOL_WT>  (2362) 
208.261

>  <LOGP>  (2362) 
0.8400399999999999

>  <TPSA>  (2362) 
89.34

>  <POPULARITY>  (2362) 
3.3

>  <PROTECTED>  (2362) 
TRUE

>  <SMILES>  (2362) 
N[C@@H](Cc1(cc(C)c(N)c(C)c1))C(=O)O

>  <INCHIKEY>  (2362) 
MMXFOJSYRDUIKR-VIFPVBQESA-N

$$$$
3Pal_5CF3_6NH2
     RDKit          2D

 17 17  0  0  0  0  0  0  0  0999 V2000
   -3.0426    1.6364    0.0000 N   0  0  0  0  0  0  0  0  0  0  0  0
   -3.1302    0.1389    0.0000 C   0  0  0  0  0  0  0  0  0  0  0  0
   -1.8772   -0.6857    0.0000 C   0  0  0  0  0  0  0  0  0  0  0  0
   -0.5366   -0.0128    0.0000 C   0  0  0  0  0  0  0  0  0  0  0  0
   -0.4490    1.4846    0.0000 C   0  0  0  0  0  0  0  0  0  0  0  0
    0.8917    2.1575    0.0000 N   0  0  0  0  0  0  0  0  0  0  0  0
    2.1447    1.3329    0.0000 C   0  0  0  0  0  0  0  0  0  0  0  0
    3.4853    2.0058    0.0000 N   0  0  0  0  0  0  0  0  0  0  0  0
    2.0571   -0.1645    0.0000 C   0  0  0  0  0  0  0  0  0  0  0  0
    0.7165   -0.8374    0.0000 C   0  0  0  0  0  0  0  0  0  0  0  0
    3.3101   -0.9891    0.0000 C   0  0  0  0  0  0  0  0  0  0  0  0
    4.5631   -1.8137    0.0000 F   0  0  0  0  0  0  0  0  0  0  0  0
    2.4855   -2.2421    0.0000 F   0  0  0  0  0  0  0  0  0  0  0  0
    4.1347    0.2639    0.0000 F   0  0  0  0  0  0  0  0  0  0  0  0
   -4.4708   -0.5339    0.0000 C   0  0  0  0  0  0  0  0  0  0  0  0
   -4.5584   -2.0314    0.0000 O   0  0  0  0  0  0  0  0  0  0  0  0
   -5.7238    0.2906    0.0000 O   0  0  0  0  0  0  0  0  0  0  0  0
  2  1  1  1
  2  3  1  0
  3  4  1  0
  4  5  1  0
  5  6  2  0
  6  7  1  0
  7  8  1  0
  7  9  2  0
  9 10  1  0
  9 11  1  0
 11 12  1  0
 11 13  1  0
 11 14  1  0
  2 15  1  0
 15 16  2  0
 15 17  1  0
 10  4  2  0
M  END
>  <rName>  (2363) 
3Pal_5CF3_6NH2

>  <PQ_SYMBOL>  (2363) 
3Pal_5CF3_6NH2

>  <FULL_NAME>  (2363) 
(S)-2-amino-3-(6-amino-5-(trifluoromethyl)pyridin-3-yl)propanoic acid

>  <IUPAC_CONDENSED>  (2363) 
3Pal(5-CF3,6-NH2)

>  <IUPAC>  (2363) 
(2S)-2-amino-3-(6-amino-5-(trifluoromethyl)pyridin-3-yl)propanoic acid

>  <TYPE>  (2363) 
Backbone

>  <CLASS>  (2363) 
alpha

>  <ANALOG>  (2363) 
Phe

>  <MOL_WT>  (2363) 
249.19199999999998

>  <LOGP>  (2363) 
0.6369999999999998

>  <TPSA>  (2363) 
102.23

>  <POPULARITY>  (2363) 
2.2

>  <PROTECTED>  (2363) 
TRUE

>  <SMILES>  (2363) 
N[C@@H](Cc1(cnc(N)c(c1)C(F)(F)F))C(=O)O

>  <INCHIKEY>  (2363) 
GNXRYQKCEPVNQC-LURJTMIESA-N

$$$$
Phe_3Cl_5CO2H
     RDKit          2D

 16 16  0  0  0  0  0  0  0  0999 V2000
   -2.6682    1.4912    0.0000 N   0  0  0  0  0  0  0  0  0  0  0  0
   -2.7668   -0.0056    0.0000 C   0  0  0  0  0  0  0  0  0  0  0  0
   -1.5199   -0.8394    0.0000 C   0  0  0  0  0  0  0  0  0  0  0  0
   -0.1744   -0.1764    0.0000 C   0  0  0  0  0  0  0  0  0  0  0  0
   -0.0757    1.3203    0.0000 C   0  0  0  0  0  0  0  0  0  0  0  0
    1.2698    1.9833    0.0000 C   0  0  0  0  0  0  0  0  0  0  0  0
    1.3685    3.4800    0.0000 Cl  0  0  0  0  0  0  0  0  0  0  0  0
    2.5167    1.1495    0.0000 C   0  0  0  0  0  0  0  0  0  0  0  0
    2.4181   -0.3473    0.0000 C   0  0  0  0  0  0  0  0  0  0  0  0
    1.0725   -1.0102    0.0000 C   0  0  0  0  0  0  0  0  0  0  0  0
    3.6650   -1.1811    0.0000 C   0  0  0  0  0  0  0  0  0  0  0  0
    5.0105   -0.5181    0.0000 O   0  0  0  0  0  0  0  0  0  0  0  0
    3.5664   -2.6778    0.0000 O   0  0  0  0  0  0  0  0  0  0  0  0
   -4.1124   -0.6685    0.0000 C   0  0  0  0  0  0  0  0  0  0  0  0
   -4.2110   -2.1653    0.0000 O   0  0  0  0  0  0  0  0  0  0  0  0
   -5.3593    0.1653    0.0000 O   0  0  0  0  0  0  0  0  0  0  0  0
  2  1  1  1
  2  3  1  0
  3  4  1  0
  4  5  1  0
  5  6  2  0
  6  7  1  0
  6  8  1  0
  8  9  2  0
  9 10  1  0
  9 11  1  0
 11 12  2  0
 11 13  1  0
  2 14  1  0
 14 15  2  0
 14 16  1  0
 10  4  2  0
M  END
>  <rName>  (2364) 
Phe_3Cl_5CO2H

>  <PQ_SYMBOL>  (2364) 
Phe_3Cl_5CO2H

>  <FULL_NAME>  (2364) 
(S)-3-(2-amino-2-carboxyethyl)-5-chlorobenzoic acid

>  <IUPAC_CONDENSED>  (2364) 
Phe(3-Cl,5-CO2H)

>  <IUPAC>  (2364) 
3-((2S)-2-amino-3-hydroxy-3-oxopropyl)-5-chlorobenzene-1-carboxylic acid

>  <TYPE>  (2364) 
Backbone

>  <CLASS>  (2364) 
alpha

>  <ANALOG>  (2364) 
Phe

>  <MOL_WT>  (2364) 
243.646

>  <LOGP>  (2364) 
0.9926000000000001

>  <TPSA>  (2364) 
100.62000000000002

>  <POPULARITY>  (2364) 
2.7

>  <PROTECTED>  (2364) 
TRUE

>  <SMILES>  (2364) 
N[C@@H](Cc1(cc(Cl)cc(c1)C(=O)O))C(=O)O

>  <INCHIKEY>  (2364) 
IAJWCTSYVHNICS-QMMMGPOBSA-N

$$$$
Phe_2CO2H_4F
     RDKit          2D

 16 16  0  0  0  0  0  0  0  0999 V2000
   -2.0264    2.1084    0.0000 N   0  0  0  0  0  0  0  0  0  0  0  0
   -2.2807    0.6301    0.0000 C   0  0  0  0  0  0  0  0  0  0  0  0
   -1.1276   -0.3292    0.0000 C   0  0  0  0  0  0  0  0  0  0  0  0
    0.2798    0.1897    0.0000 C   0  0  0  0  0  0  0  0  0  0  0  0
    0.5340    1.6680    0.0000 C   0  0  0  0  0  0  0  0  0  0  0  0
    1.9414    2.1869    0.0000 C   0  0  0  0  0  0  0  0  0  0  0  0
    3.0945    1.2276    0.0000 C   0  0  0  0  0  0  0  0  0  0  0  0
    4.5019    1.7465    0.0000 F   0  0  0  0  0  0  0  0  0  0  0  0
    2.8403   -0.2507    0.0000 C   0  0  0  0  0  0  0  0  0  0  0  0
    1.4329   -0.7697    0.0000 C   0  0  0  0  0  0  0  0  0  0  0  0
    1.1786   -2.2479    0.0000 C   0  0  0  0  0  0  0  0  0  0  0  0
   -0.2288   -2.7669    0.0000 O   0  0  0  0  0  0  0  0  0  0  0  0
    2.3317   -3.2073    0.0000 O   0  0  0  0  0  0  0  0  0  0  0  0
   -3.6881    0.1112    0.0000 C   0  0  0  0  0  0  0  0  0  0  0  0
   -3.9423   -1.3671    0.0000 O   0  0  0  0  0  0  0  0  0  0  0  0
   -4.8412    1.0705    0.0000 O   0  0  0  0  0  0  0  0  0  0  0  0
  2  1  1  1
  2  3  1  0
  3  4  1  0
  4  5  1  0
  5  6  2  0
  6  7  1  0
  7  8  1  0
  7  9  2  0
  9 10  1  0
 10 11  1  0
 11 12  2  0
 11 13  1  0
  2 14  1  0
 14 15  2  0
 14 16  1  0
 10  4  2  0
M  END
>  <rName>  (2365) 
Phe_2CO2H_4F

>  <PQ_SYMBOL>  (2365) 
Phe_2CO2H_4F

>  <FULL_NAME>  (2365) 
(S)-2-(2-amino-2-carboxyethyl)-5-fluorobenzoic acid

>  <IUPAC_CONDENSED>  (2365) 
Phe(2-CO2H,4-F)

>  <IUPAC>  (2365) 
2-((2S)-2-amino-3-hydroxy-3-oxopropyl)-5-fluorobenzene-1-carboxylic acid

>  <TYPE>  (2365) 
Backbone

>  <CLASS>  (2365) 
alpha

>  <ANALOG>  (2365) 
Phe

>  <MOL_WT>  (2365) 
227.19099999999997

>  <LOGP>  (2365) 
0.47829999999999984

>  <TPSA>  (2365) 
100.62000000000002

>  <POPULARITY>  (2365) 
2.6

>  <PROTECTED>  (2365) 
TRUE

>  <SMILES>  (2365) 
N[C@@H](Cc1(ccc(F)cc1C(=O)O))C(=O)O

>  <INCHIKEY>  (2365) 
MHFWLJNSUNHNTN-QMMMGPOBSA-N

$$$$
Ala_1Meindazolyl
     RDKit          2D

 16 17  0  0  0  0  0  0  0  0999 V2000
   -2.6133    1.7123    0.0000 N   0  0  0  0  0  0  0  0  0  0  0  0
   -2.9872    0.2596    0.0000 C   0  0  0  0  0  0  0  0  0  0  0  0
   -1.9161   -0.7905    0.0000 C   0  0  0  0  0  0  0  0  0  0  0  0
   -0.4711   -0.3880    0.0000 C   0  0  0  0  0  0  0  0  0  0  0  0
   -0.0972    1.0647    0.0000 C   0  0  0  0  0  0  0  0  0  0  0  0
    1.3478    1.4672    0.0000 C   0  0  0  0  0  0  0  0  0  0  0  0
    2.4189    0.4171    0.0000 C   0  0  0  0  0  0  0  0  0  0  0  0
    2.0450   -1.0355    0.0000 C   0  0  0  0  0  0  0  0  0  0  0  0
    3.3110   -1.8400    0.0000 C   0  0  0  0  0  0  0  0  0  0  0  0
    4.4673   -0.8845    0.0000 N   0  0  0  0  0  0  0  0  0  0  0  0
    3.9160    0.5105    0.0000 N   0  0  0  0  0  0  0  0  0  0  0  0
    4.7204    1.7765    0.0000 C   0  0  0  0  0  0  0  0  0  0  0  0
    0.6000   -1.4381    0.0000 C   0  0  0  0  0  0  0  0  0  0  0  0
   -4.4322   -0.1429    0.0000 C   0  0  0  0  0  0  0  0  0  0  0  0
   -4.8060   -1.5956    0.0000 O   0  0  0  0  0  0  0  0  0  0  0  0
   -5.5033    0.9072    0.0000 O   0  0  0  0  0  0  0  0  0  0  0  0
  2  1  1  1
  2  3  1  0
  3  4  1  0
  4  5  1  0
  5  6  2  0
  6  7  1  0
  7  8  2  0
  8  9  1  0
  9 10  2  0
 10 11  1  0
 11 12  1  0
  8 13  1  0
  2 14  1  0
 14 15  2  0
 14 16  1  0
 11  7  1  0
 13  4  2  0
M  END
>  <rName>  (2366) 
Ala_1Meindazolyl

>  <PQ_SYMBOL>  (2366) 
Ala_1Meindazolyl

>  <FULL_NAME>  (2366) 
(S)-2-amino-3-(1-methyl-1H-indazol-5-yl)propanoic acid

>  <IUPAC_CONDENSED>  (2366) 
Ala(1-Me-indazolyl)

>  <IUPAC>  (2366) 
(2S)-2-amino-3-(1-methyl-1H-indazol-5-yl)propanoic acid

>  <TYPE>  (2366) 
Backbone

>  <CLASS>  (2366) 
alpha

>  <ANALOG>  (2366) 
Phe

>  <MOL_WT>  (2366) 
219.24399999999997

>  <LOGP>  (2366) 
0.5276999999999998

>  <TPSA>  (2366) 
81.14

>  <POPULARITY>  (2366) 
3.1

>  <PROTECTED>  (2366) 
TRUE

>  <SMILES>  (2366) 
N[C@@H](Cc2(ccc1(c(cnn1C)c2)))C(=O)O

>  <INCHIKEY>  (2366) 
RWMLDOJQANZKGI-VIFPVBQESA-N

$$$$
bAla_2ROH_3RPh_2CF3
     RDKit          2D

 17 17  0  0  0  0  0  0  0  0999 V2000
   -0.8119   -1.6468    0.0000 N   0  0  0  0  0  0  0  0  0  0  0  0
   -0.8381   -0.1470    0.0000 C   0  0  0  0  0  0  0  0  0  0  0  0
    0.4476    0.6256    0.0000 C   0  0  0  0  0  0  0  0  0  0  0  0
    0.4214    2.1253    0.0000 C   0  0  0  0  0  0  0  0  0  0  0  0
    1.7071    2.8979    0.0000 C   0  0  0  0  0  0  0  0  0  0  0  0
    3.0191    2.1708    0.0000 C   0  0  0  0  0  0  0  0  0  0  0  0
    3.0453    0.6710    0.0000 C   0  0  0  0  0  0  0  0  0  0  0  0
    1.7596   -0.1016    0.0000 C   0  0  0  0  0  0  0  0  0  0  0  0
    1.7858   -1.6014    0.0000 C   0  0  0  0  0  0  0  0  0  0  0  0
    1.8120   -3.1011    0.0000 F   0  0  0  0  0  0  0  0  0  0  0  0
    3.2856   -1.5751    0.0000 F   0  0  0  0  0  0  0  0  0  0  0  0
    0.2860   -1.6276    0.0000 F   0  0  0  0  0  0  0  0  0  0  0  0
   -2.1501    0.5801    0.0000 C   0  0  0  0  0  0  0  0  0  0  0  0
   -2.1763    2.0799    0.0000 O   0  0  0  0  0  0  0  0  0  0  0  0
   -3.4358   -0.1925    0.0000 C   0  0  0  0  0  0  0  0  0  0  0  0
   -3.4096   -1.6922    0.0000 O   0  0  0  0  0  0  0  0  0  0  0  0
   -4.7477    0.5347    0.0000 O   0  0  0  0  0  0  0  0  0  0  0  0
  2  1  1  1
  2  3  1  0
  3  4  2  0
  4  5  1  0
  5  6  2  0
  6  7  1  0
  7  8  2  0
  8  9  1  0
  9 10  1  0
  9 11  1  0
  9 12  1  0
  2 13  1  0
 13 14  1  6
 13 15  1  0
 15 16  2  0
 15 17  1  0
  8  3  1  0
M  END
>  <rName>  (2367) 
bAla_2ROH_3RPh_2CF3

>  <PQ_SYMBOL>  (2367) 
bAla_2ROH_3RPh_2CF3

>  <FULL_NAME>  (2367) 
(2R,3R)-3-amino-2-hydroxy-3-(2-(trifluoromethyl)phenyl)propanoic acid

>  <IUPAC_CONDENSED>  (2367) 
bAla(2R-OH,3R-Ph(2-CF3))

>  <IUPAC>  (2367) 
(2R,3R)-3-amino-2-hydroxy-3-(2-(trifluoromethyl)phenyl)propanoic acid

>  <TYPE>  (2367) 
Backbone

>  <CLASS>  (2367) 
beta

>  <ANALOG>  (2367) 
X

>  <MOL_WT>  (2367) 
249.18799999999996

>  <LOGP>  (2367) 
1.1507

>  <TPSA>  (2367) 
83.55

>  <POPULARITY>  (2367) 
2.6

>  <PROTECTED>  (2367) 
TRUE

>  <SMILES>  (2367) 
N[C@H](c1(ccccc1C(F)(F)F))[C@@H](O)C(=O)O

>  <INCHIKEY>  (2367) 
YIGYZBFRVLGTOV-HTQZYQBOSA-N

$$$$
3Pal_2CO2H
     RDKit          2D

 15 15  0  0  0  0  0  0  0  0999 V2000
   -2.0511    1.9295    0.0000 N   0  0  0  0  0  0  0  0  0  0  0  0
   -2.0725    0.4296    0.0000 C   0  0  0  0  0  0  0  0  0  0  0  0
   -0.7843   -0.3388    0.0000 C   0  0  0  0  0  0  0  0  0  0  0  0
    0.5253    0.3925    0.0000 C   0  0  0  0  0  0  0  0  0  0  0  0
    0.5467    1.8924    0.0000 C   0  0  0  0  0  0  0  0  0  0  0  0
    1.8563    2.6238    0.0000 C   0  0  0  0  0  0  0  0  0  0  0  0
    3.1445    1.8553    0.0000 C   0  0  0  0  0  0  0  0  0  0  0  0
    3.1231    0.3555    0.0000 N   0  0  0  0  0  0  0  0  0  0  0  0
    1.8135   -0.3759    0.0000 C   0  0  0  0  0  0  0  0  0  0  0  0
    1.7921   -1.8758    0.0000 C   0  0  0  0  0  0  0  0  0  0  0  0
    0.4825   -2.6072    0.0000 O   0  0  0  0  0  0  0  0  0  0  0  0
    3.0803   -2.6442    0.0000 O   0  0  0  0  0  0  0  0  0  0  0  0
   -3.3821   -0.3018    0.0000 C   0  0  0  0  0  0  0  0  0  0  0  0
   -3.4036   -1.8016    0.0000 O   0  0  0  0  0  0  0  0  0  0  0  0
   -4.6704    0.4667    0.0000 O   0  0  0  0  0  0  0  0  0  0  0  0
  2  1  1  1
  2  3  1  0
  3  4  1  0
  4  5  2  0
  5  6  1  0
  6  7  2  0
  7  8  1  0
  8  9  2  0
  9 10  1  0
 10 11  2  0
 10 12  1  0
  2 13  1  0
 13 14  2  0
 13 15  1  0
  9  4  1  0
M  END
>  <rName>  (2368) 
3Pal_2CO2H

>  <PQ_SYMBOL>  (2368) 
3Pal_2CO2H

>  <FULL_NAME>  (2368) 
(S)-3-(2-amino-2-carboxyethyl)picolinic acid

>  <IUPAC_CONDENSED>  (2368) 
3Pal(2-CO2H)

>  <IUPAC>  (2368) 
3-((2S)-2-amino-3-hydroxy-3-oxopropyl)pyridine-2-carboxylic acid

>  <TYPE>  (2368) 
Backbone

>  <CLASS>  (2368) 
alpha

>  <ANALOG>  (2368) 
Phe

>  <MOL_WT>  (2368) 
210.18899999999996

>  <LOGP>  (2368) 
-0.2658000000000001

>  <TPSA>  (2368) 
113.51

>  <POPULARITY>  (2368) 
2.5

>  <PROTECTED>  (2368) 
TRUE

>  <SMILES>  (2368) 
N[C@@H](Cc1(cccnc1C(=O)O))C(=O)O

>  <INCHIKEY>  (2368) 
FCANCHBPBMZGSN-LURJTMIESA-N

$$$$
Phe_2Me_3OBn
     RDKit          2D

 22 23  0  0  0  0  0  0  0  0999 V2000
   -5.1961    1.7609    0.0000 N   0  0  0  0  0  0  0  0  0  0  0  0
   -5.3094    0.2652    0.0000 C   0  0  0  0  0  0  0  0  0  0  0  0
   -4.0707   -0.5807    0.0000 C   0  0  0  0  0  0  0  0  0  0  0  0
   -2.7187    0.0691    0.0000 C   0  0  0  0  0  0  0  0  0  0  0  0
   -2.6055    1.5648    0.0000 C   0  0  0  0  0  0  0  0  0  0  0  0
   -1.2535    2.2146    0.0000 C   0  0  0  0  0  0  0  0  0  0  0  0
   -0.0148    1.3687    0.0000 C   0  0  0  0  0  0  0  0  0  0  0  0
   -0.1281   -0.1271    0.0000 C   0  0  0  0  0  0  0  0  0  0  0  0
    1.1107   -0.9730    0.0000 C   0  0  0  0  0  0  0  0  0  0  0  0
    2.4626   -0.3232    0.0000 O   0  0  0  0  0  0  0  0  0  0  0  0
    3.7013   -1.1691    0.0000 C   0  0  0  0  0  0  0  0  0  0  0  0
    5.0533   -0.5193    0.0000 C   0  0  0  0  0  0  0  0  0  0  0  0
    6.2920   -1.3652    0.0000 C   0  0  0  0  0  0  0  0  0  0  0  0
    7.6439   -0.7154    0.0000 C   0  0  0  0  0  0  0  0  0  0  0  0
    7.7572    0.7803    0.0000 C   0  0  0  0  0  0  0  0  0  0  0  0
    6.5185    1.6262    0.0000 C   0  0  0  0  0  0  0  0  0  0  0  0
    5.1665    0.9764    0.0000 C   0  0  0  0  0  0  0  0  0  0  0  0
   -1.4800   -0.7769    0.0000 C   0  0  0  0  0  0  0  0  0  0  0  0
   -1.5932   -2.2726    0.0000 C   0  0  0  0  0  0  0  0  0  0  0  0
   -6.6613   -0.3846    0.0000 C   0  0  0  0  0  0  0  0  0  0  0  0
   -6.7746   -1.8803    0.0000 O   0  0  0  0  0  0  0  0  0  0  0  0
   -7.9000    0.4613    0.0000 O   0  0  0  0  0  0  0  0  0  0  0  0
  2  1  1  1
  2  3  1  0
  3  4  1  0
  4  5  2  0
  5  6  1  0
  6  7  2  0
  7  8  1  0
  8  9  1  0
  9 10  1  0
 10 11  1  0
 11 12  1  0
 12 13  2  0
 13 14  1  0
 14 15  2  0
 15 16  1  0
 16 17  2  0
  8 18  2  0
 18 19  1  0
  2 20  1  0
 20 21  2  0
 20 22  1  0
 17 12  1  0
 18  4  1  0
M  END
>  <rName>  (2369) 
Phe_2Me_3OBn

>  <PQ_SYMBOL>  (2369) 
Phe_2Me_3OBn

>  <FULL_NAME>  (2369) 
(S)-2-amino-3-(3-((benzyloxy)methyl)-2-methylphenyl)propanoic acid

>  <IUPAC_CONDENSED>  (2369) 
Phe(2-Me,3-OBn)

>  <IUPAC>  (2369) 
(2S)-2-amino-3-(3-(benzyloxymethyl)-2-methylphenyl)propanoic acid

>  <TYPE>  (2369) 
Backbone

>  <CLASS>  (2369) 
alpha

>  <ANALOG>  (2369) 
Phe

>  <MOL_WT>  (2369) 
299.37

>  <LOGP>  (2369) 
2.666220000000001

>  <TPSA>  (2369) 
72.55

>  <POPULARITY>  (2369) 
2.3

>  <PROTECTED>  (2369) 
TRUE

>  <SMILES>  (2369) 
N[C@@H](Cc2(cccc(COCc1(ccccc1))c2C))C(=O)O

>  <INCHIKEY>  (2369) 
PZHWTQRJJDVPKO-KRWDZBQOSA-N

$$$$
Phe_2F_4Me
     RDKit          2D

 14 14  0  0  0  0  0  0  0  0999 V2000
   -1.7174    1.8436    0.0000 N   0  0  0  0  0  0  0  0  0  0  0  0
   -2.1036    0.3942    0.0000 C   0  0  0  0  0  0  0  0  0  0  0  0
   -1.0414   -0.6650    0.0000 C   0  0  0  0  0  0  0  0  0  0  0  0
    0.4069   -0.2747    0.0000 C   0  0  0  0  0  0  0  0  0  0  0  0
    0.7931    1.1747    0.0000 C   0  0  0  0  0  0  0  0  0  0  0  0
    2.2415    1.5649    0.0000 C   0  0  0  0  0  0  0  0  0  0  0  0
    3.3036    0.5057    0.0000 C   0  0  0  0  0  0  0  0  0  0  0  0
    4.7520    0.8960    0.0000 C   0  0  0  0  0  0  0  0  0  0  0  0
    2.9174   -0.9437    0.0000 C   0  0  0  0  0  0  0  0  0  0  0  0
    1.4691   -1.3339    0.0000 C   0  0  0  0  0  0  0  0  0  0  0  0
    1.0829   -2.7834    0.0000 F   0  0  0  0  0  0  0  0  0  0  0  0
   -3.5519    0.0039    0.0000 C   0  0  0  0  0  0  0  0  0  0  0  0
   -3.9381   -1.4455    0.0000 O   0  0  0  0  0  0  0  0  0  0  0  0
   -4.6140    1.0631    0.0000 O   0  0  0  0  0  0  0  0  0  0  0  0
  2  1  1  1
  2  3  1  0
  3  4  1  0
  4  5  1  0
  5  6  2  0
  6  7  1  0
  7  8  1  0
  7  9  2  0
  9 10  1  0
 10 11  1  0
  2 12  1  0
 12 13  2  0
 12 14  1  0
 10  4  2  0
M  END
>  <rName>  (2370) 
Phe_2F_4Me

>  <PQ_SYMBOL>  (2370) 
Phe_2F_4Me

>  <FULL_NAME>  (2370) 
(S)-2-amino-3-(2-fluoro-4-methylphenyl)propanoic acid

>  <IUPAC_CONDENSED>  (2370) 
Phe(2-F,4-Me)

>  <IUPAC>  (2370) 
(2S)-2-amino-3-(2-fluoro-4-methylphenyl)propanoic acid

>  <TYPE>  (2370) 
Backbone

>  <CLASS>  (2370) 
alpha

>  <ANALOG>  (2370) 
Phe

>  <MOL_WT>  (2370) 
197.20899999999995

>  <LOGP>  (2370) 
1.0885200000000002

>  <TPSA>  (2370) 
63.32000000000001

>  <POPULARITY>  (2370) 
4.9

>  <PROTECTED>  (2370) 
TRUE

>  <SMILES>  (2370) 
N[C@@H](Cc1(ccc(C)cc1F))C(=O)O

>  <INCHIKEY>  (2370) 
ZWMXOQFVRKESMD-VIFPVBQESA-N

$$$$
Phe_2Me_3F
     RDKit          2D

 14 14  0  0  0  0  0  0  0  0999 V2000
   -1.9599    1.7683    0.0000 N   0  0  0  0  0  0  0  0  0  0  0  0
   -2.1168    0.2766    0.0000 C   0  0  0  0  0  0  0  0  0  0  0  0
   -0.9034   -0.6052    0.0000 C   0  0  0  0  0  0  0  0  0  0  0  0
    0.4670    0.0047    0.0000 C   0  0  0  0  0  0  0  0  0  0  0  0
    0.6239    1.4965    0.0000 C   0  0  0  0  0  0  0  0  0  0  0  0
    1.9943    2.1065    0.0000 C   0  0  0  0  0  0  0  0  0  0  0  0
    3.2078    1.2247    0.0000 C   0  0  0  0  0  0  0  0  0  0  0  0
    3.0508   -0.2671    0.0000 C   0  0  0  0  0  0  0  0  0  0  0  0
    4.2643   -1.1489    0.0000 F   0  0  0  0  0  0  0  0  0  0  0  0
    1.6804   -0.8771    0.0000 C   0  0  0  0  0  0  0  0  0  0  0  0
    1.5235   -2.3688    0.0000 C   0  0  0  0  0  0  0  0  0  0  0  0
   -3.4872   -0.3334    0.0000 C   0  0  0  0  0  0  0  0  0  0  0  0
   -3.6441   -1.8252    0.0000 O   0  0  0  0  0  0  0  0  0  0  0  0
   -4.7006    0.5484    0.0000 O   0  0  0  0  0  0  0  0  0  0  0  0
  2  1  1  1
  2  3  1  0
  3  4  1  0
  4  5  2  0
  5  6  1  0
  6  7  2  0
  7  8  1  0
  8  9  1  0
  8 10  2  0
 10 11  1  0
  2 12  1  0
 12 13  2  0
 12 14  1  0
 10  4  1  0
M  END
>  <rName>  (2371) 
Phe_2Me_3F

>  <PQ_SYMBOL>  (2371) 
Phe_2Me_3F

>  <FULL_NAME>  (2371) 
(S)-2-amino-3-(3-fluoro-2-methylphenyl)propanoic acid

>  <IUPAC_CONDENSED>  (2371) 
Phe(2-Me,3-F)

>  <IUPAC>  (2371) 
(2S)-2-amino-3-(3-fluoro-2-methylphenyl)propanoic acid

>  <TYPE>  (2371) 
Backbone

>  <CLASS>  (2371) 
alpha

>  <ANALOG>  (2371) 
Phe

>  <MOL_WT>  (2371) 
197.20899999999997

>  <LOGP>  (2371) 
1.0885200000000002

>  <TPSA>  (2371) 
63.32000000000001

>  <POPULARITY>  (2371) 
3.4

>  <PROTECTED>  (2371) 
TRUE

>  <SMILES>  (2371) 
N[C@@H](Cc1(cccc(F)c1C))C(=O)O

>  <INCHIKEY>  (2371) 
GTXNGJQJNNNKGD-VIFPVBQESA-N

$$$$
Phe_3NO2_4OMe
     RDKit          2D

 17 17  0  0  0  0  0  0  0  0999 V2000
   -2.8817    1.7117    0.0000 N   0  0  0  0  0  0  0  0  0  0  0  0
   -3.1394    0.2340    0.0000 C   0  0  0  0  0  0  0  0  0  0  0  0
   -1.9886   -0.7280    0.0000 C   0  0  0  0  0  0  0  0  0  0  0  0
   -0.5800   -0.2123    0.0000 C   0  0  0  0  0  0  0  0  0  0  0  0
   -0.3223    1.2654    0.0000 C   0  0  0  0  0  0  0  0  0  0  0  0
    1.0863    1.7810    0.0000 C   0  0  0  0  0  0  0  0  0  0  0  0
    2.2372    0.8190    0.0000 C   0  0  0  0  0  0  0  0  0  0  0  0
    3.6457    1.3347    0.0000 O   0  0  0  0  0  0  0  0  0  0  0  0
    3.9034    2.8123    0.0000 C   0  0  0  0  0  0  0  0  0  0  0  0
    1.9794   -0.6587    0.0000 C   0  0  0  0  0  0  0  0  0  0  0  0
    0.5709   -1.1744    0.0000 C   0  0  0  0  0  0  0  0  0  0  0  0
    3.1303   -1.6207    0.0000 N   0  0  0  0  0  0  0  0  0  0  0  0
    4.5389   -1.1051    0.0000 O   0  0  0  0  0  0  0  0  0  0  0  0
    2.8726   -3.0984    0.0000 O   0  0  0  0  0  0  0  0  0  0  0  0
   -4.5480   -0.2816    0.0000 C   0  0  0  0  0  0  0  0  0  0  0  0
   -4.8057   -1.7593    0.0000 O   0  0  0  0  0  0  0  0  0  0  0  0
   -5.6989    0.6804    0.0000 O   0  0  0  0  0  0  0  0  0  0  0  0
  2  1  1  1
  2  3  1  0
  3  4  1  0
  4  5  1  0
  5  6  2  0
  6  7  1  0
  7  8  1  0
  8  9  1  0
  7 10  2  0
 10 11  1  0
 10 12  1  0
 12 13  2  0
 12 14  1  0
  2 15  1  0
 15 16  2  0
 15 17  1  0
 11  4  2  0
M  CHG  2  12   1  14  -1
M  END
>  <rName>  (2372) 
Phe_3NO2_4OMe

>  <PQ_SYMBOL>  (2372) 
Phe_3NO2_4OMe

>  <FULL_NAME>  (2372) 
(S)-2-amino-3-(4-methoxy-3-nitrophenyl)propanoic acid

>  <IUPAC_CONDENSED>  (2372) 
Phe(3-NO2,4-OMe)

>  <IUPAC>  (2372) 
(2S)-2-amino-3-(4-methoxy-3-nitrophenyl)propanoic acid

>  <TYPE>  (2372) 
Backbone

>  <CLASS>  (2372) 
alpha

>  <ANALOG>  (2372) 
Tyr

>  <MOL_WT>  (2372) 
240.21499999999997

>  <LOGP>  (2372) 
0.5578000000000001

>  <TPSA>  (2372) 
115.69000000000001

>  <POPULARITY>  (2372) 
4.2

>  <PROTECTED>  (2372) 
TRUE

>  <SMILES>  (2372) 
N[C@@H](Cc1(ccc(OC)c(c1)[N+](=O)[O-]))C(=O)O

>  <INCHIKEY>  (2372) 
MZNPRACFHIBIGU-ZETCQYMHSA-N

$$$$
Ala_triazolopyridinyl
     RDKit          2D

 15 16  0  0  0  0  0  0  0  0999 V2000
    2.4169   -1.6715    0.0000 N   0  0  0  0  0  0  0  0  0  0  0  0
    2.6919   -0.1969    0.0000 C   0  0  0  0  0  0  0  0  0  0  0  0
    1.5524    0.7786    0.0000 C   0  0  0  0  0  0  0  0  0  0  0  0
    0.1379    0.2795    0.0000 C   0  0  0  0  0  0  0  0  0  0  0  0
   -0.1372   -1.1951    0.0000 C   0  0  0  0  0  0  0  0  0  0  0  0
   -1.5517   -1.6942    0.0000 C   0  0  0  0  0  0  0  0  0  0  0  0
   -2.6912   -0.7188    0.0000 C   0  0  0  0  0  0  0  0  0  0  0  0
   -4.1786   -0.9129    0.0000 N   0  0  0  0  0  0  0  0  0  0  0  0
   -4.8228    0.4417    0.0000 C   0  0  0  0  0  0  0  0  0  0  0  0
   -3.7336    1.4730    0.0000 N   0  0  0  0  0  0  0  0  0  0  0  0
   -2.4162    0.7558    0.0000 N   0  0  0  0  0  0  0  0  0  0  0  0
   -1.0016    1.2549    0.0000 C   0  0  0  0  0  0  0  0  0  0  0  0
    4.1064    0.3022    0.0000 C   0  0  0  0  0  0  0  0  0  0  0  0
    4.3814    1.7768    0.0000 O   0  0  0  0  0  0  0  0  0  0  0  0
    5.2459   -0.6732    0.0000 O   0  0  0  0  0  0  0  0  0  0  0  0
  2  1  1  1
  2  3  1  0
  3  4  1  0
  4  5  1  0
  5  6  2  0
  6  7  1  0
  7  8  2  0
  8  9  1  0
  9 10  2  0
 10 11  1  0
 11 12  1  0
  2 13  1  0
 13 14  2  0
 13 15  1  0
 11  7  1  0
 12  4  2  0
M  END
>  <rName>  (2373) 
Ala_triazolopyridinyl

>  <PQ_SYMBOL>  (2373) 
Ala_triazolopyridinyl

>  <FULL_NAME>  (2373) 
(S)-3-([1,2,4]triazolo[1,5-a]pyridin-6-yl)-2-aminopropanoic acid

>  <IUPAC_CONDENSED>  (2373) 
Ala(triazolopyridinyl)

>  <IUPAC>  (2373) 
(2S)-2-amino-3-(1,7,9-triazabicyclo[4.3.0]nona-2,4,6,8-tetraen-3-yl)propanoic acid

>  <TYPE>  (2373) 
Backbone

>  <CLASS>  (2373) 
alpha

>  <ANALOG>  (2373) 
Phe

>  <MOL_WT>  (2373) 
206.20499999999998

>  <LOGP>  (2373) 
-0.3163000000000003

>  <TPSA>  (2373) 
93.51

>  <POPULARITY>  (2373) 
2.4

>  <PROTECTED>  (2373) 
TRUE

>  <SMILES>  (2373) 
N[C@@H](Cc2(ccc1(ncnn1c2)))C(=O)O

>  <INCHIKEY>  (2373) 
BOPYRCRTQDXTKX-ZETCQYMHSA-N

$$$$
3Pal_2OPr
     RDKit          2D

 16 16  0  0  0  0  0  0  0  0999 V2000
   -3.2504    1.0225    0.0000 N   0  0  0  0  0  0  0  0  0  0  0  0
   -2.6183   -0.3379    0.0000 C   0  0  0  0  0  0  0  0  0  0  0  0
   -1.1242   -0.4706    0.0000 C   0  0  0  0  0  0  0  0  0  0  0  0
   -0.2621    0.7569    0.0000 C   0  0  0  0  0  0  0  0  0  0  0  0
   -0.8942    2.1172    0.0000 C   0  0  0  0  0  0  0  0  0  0  0  0
   -0.0321    3.3448    0.0000 C   0  0  0  0  0  0  0  0  0  0  0  0
    1.4620    3.2120    0.0000 C   0  0  0  0  0  0  0  0  0  0  0  0
    2.0940    1.8516    0.0000 N   0  0  0  0  0  0  0  0  0  0  0  0
    1.2320    0.6241    0.0000 C   0  0  0  0  0  0  0  0  0  0  0  0
    1.8640   -0.7362    0.0000 O   0  0  0  0  0  0  0  0  0  0  0  0
    3.3581   -0.8690    0.0000 C   0  0  0  0  0  0  0  0  0  0  0  0
    3.9902   -2.2294    0.0000 C   0  0  0  0  0  0  0  0  0  0  0  0
    5.4843   -2.3622    0.0000 C   0  0  0  0  0  0  0  0  0  0  0  0
   -3.4804   -1.5654    0.0000 C   0  0  0  0  0  0  0  0  0  0  0  0
   -2.8483   -2.9257    0.0000 O   0  0  0  0  0  0  0  0  0  0  0  0
   -4.9745   -1.4326    0.0000 O   0  0  0  0  0  0  0  0  0  0  0  0
  2  1  1  1
  2  3  1  0
  3  4  1  0
  4  5  2  0
  5  6  1  0
  6  7  2  0
  7  8  1  0
  8  9  2  0
  9 10  1  0
 10 11  1  0
 11 12  1  0
 12 13  1  0
  2 14  1  0
 14 15  2  0
 14 16  1  0
  9  4  1  0
M  END
>  <rName>  (2374) 
3Pal_2OPr

>  <PQ_SYMBOL>  (2374) 
3Pal_2OPr

>  <FULL_NAME>  (2374) 
(S)-2-amino-3-(2-propoxypyridin-3-yl)propanoic acid

>  <IUPAC_CONDENSED>  (2374) 
3Pal(2-OPr)

>  <IUPAC>  (2374) 
(2S)-2-amino-3-(2-propoxypyridin-3-yl)propanoic acid

>  <TYPE>  (2374) 
Backbone

>  <CLASS>  (2374) 
alpha

>  <ANALOG>  (2374) 
Phe

>  <MOL_WT>  (2374) 
224.25999999999993

>  <LOGP>  (2374) 
0.8248

>  <TPSA>  (2374) 
85.44000000000001

>  <POPULARITY>  (2374) 
2.9

>  <PROTECTED>  (2374) 
TRUE

>  <SMILES>  (2374) 
N[C@@H](Cc1(cccnc1OCCC))C(=O)O

>  <INCHIKEY>  (2374) 
BUTDKPQQVPOQEL-VIFPVBQESA-N

$$$$
Phe_4Ph_4Pr
     RDKit          2D

 21 22  0  0  0  0  0  0  0  0999 V2000
   -4.5161    1.7003    0.0000 N   0  0  0  0  0  0  0  0  0  0  0  0
   -5.0653    0.3044    0.0000 C   0  0  0  0  0  0  0  0  0  0  0  0
   -4.1311   -0.8691    0.0000 C   0  0  0  0  0  0  0  0  0  0  0  0
   -2.6477   -0.6469    0.0000 C   0  0  0  0  0  0  0  0  0  0  0  0
   -2.0984    0.7489    0.0000 C   0  0  0  0  0  0  0  0  0  0  0  0
   -0.6150    0.9712    0.0000 C   0  0  0  0  0  0  0  0  0  0  0  0
    0.3192   -0.2024    0.0000 C   0  0  0  0  0  0  0  0  0  0  0  0
   -0.2300   -1.5982    0.0000 C   0  0  0  0  0  0  0  0  0  0  0  0
   -1.7135   -1.8205    0.0000 C   0  0  0  0  0  0  0  0  0  0  0  0
    1.8027    0.0199    0.0000 C   0  0  0  0  0  0  0  0  0  0  0  0
    2.7369   -1.1537    0.0000 C   0  0  0  0  0  0  0  0  0  0  0  0
    4.2203   -0.9314    0.0000 C   0  0  0  0  0  0  0  0  0  0  0  0
    4.7696    0.4644    0.0000 C   0  0  0  0  0  0  0  0  0  0  0  0
    3.8353    1.6380    0.0000 C   0  0  0  0  0  0  0  0  0  0  0  0
    2.3519    1.4157    0.0000 C   0  0  0  0  0  0  0  0  0  0  0  0
    6.2530    0.6867    0.0000 C   0  0  0  0  0  0  0  0  0  0  0  0
    7.1872   -0.4869    0.0000 C   0  0  0  0  0  0  0  0  0  0  0  0
    8.6706   -0.2646    0.0000 C   0  0  0  0  0  0  0  0  0  0  0  0
   -6.5487    0.0822    0.0000 C   0  0  0  0  0  0  0  0  0  0  0  0
   -7.0980   -1.3137    0.0000 O   0  0  0  0  0  0  0  0  0  0  0  0
   -7.4830    1.2557    0.0000 O   0  0  0  0  0  0  0  0  0  0  0  0
  2  1  1  1
  2  3  1  0
  3  4  1  0
  4  5  1  0
  5  6  2  0
  6  7  1  0
  7  8  2  0
  8  9  1  0
  7 10  1  0
 10 11  1  0
 11 12  2  0
 12 13  1  0
 13 14  2  0
 14 15  1  0
 13 16  1  0
 16 17  1  0
 17 18  1  0
  2 19  1  0
 19 20  2  0
 19 21  1  0
  9  4  2  0
 15 10  2  0
M  END
>  <rName>  (2375) 
Phe_4Ph_4Pr

>  <PQ_SYMBOL>  (2375) 
Phe_4Ph_4Pr

>  <FULL_NAME>  (2375) 
(S)-2-amino-3-(4'-propyl-[1,1'-biphenyl]-4-yl)propanoic acid

>  <IUPAC_CONDENSED>  (2375) 
Phe(4-Ph(4-Pr))

>  <IUPAC>  (2375) 
(2S)-2-amino-3-(4-(4-propylphenyl)phenyl)propanoic acid

>  <TYPE>  (2375) 
Backbone

>  <CLASS>  (2375) 
alpha

>  <ANALOG>  (2375) 
Phe

>  <MOL_WT>  (2375) 
283.371

>  <LOGP>  (2375) 
3.2605000000000013

>  <TPSA>  (2375) 
63.32000000000001

>  <POPULARITY>  (2375) 
4.6

>  <PROTECTED>  (2375) 
TRUE

>  <SMILES>  (2375) 
N[C@@H](Cc1(ccc(cc1)c2(ccc(cc2)CCC)))C(=O)O

>  <INCHIKEY>  (2375) 
ZKXHZKIBVJODSY-KRWDZBQOSA-N

$$$$
Phe_4Ph_2Cl
     RDKit          2D

 19 20  0  0  0  0  0  0  0  0999 V2000
   -3.3749    1.6701    0.0000 N   0  0  0  0  0  0  0  0  0  0  0  0
   -3.9688    0.2927    0.0000 C   0  0  0  0  0  0  0  0  0  0  0  0
   -3.0729   -0.9104    0.0000 C   0  0  0  0  0  0  0  0  0  0  0  0
   -1.5831   -0.7360    0.0000 C   0  0  0  0  0  0  0  0  0  0  0  0
   -0.9892    0.6414    0.0000 C   0  0  0  0  0  0  0  0  0  0  0  0
    0.5007    0.8158    0.0000 C   0  0  0  0  0  0  0  0  0  0  0  0
    1.3966   -0.3872    0.0000 C   0  0  0  0  0  0  0  0  0  0  0  0
    0.8027   -1.7647    0.0000 C   0  0  0  0  0  0  0  0  0  0  0  0
   -0.6871   -1.9390    0.0000 C   0  0  0  0  0  0  0  0  0  0  0  0
    2.8864   -0.2129    0.0000 C   0  0  0  0  0  0  0  0  0  0  0  0
    3.7823   -1.4159    0.0000 C   0  0  0  0  0  0  0  0  0  0  0  0
    5.2722   -1.2415    0.0000 C   0  0  0  0  0  0  0  0  0  0  0  0
    5.8661    0.1359    0.0000 C   0  0  0  0  0  0  0  0  0  0  0  0
    4.9702    1.3389    0.0000 C   0  0  0  0  0  0  0  0  0  0  0  0
    3.4803    1.1646    0.0000 C   0  0  0  0  0  0  0  0  0  0  0  0
    2.5844    2.3676    0.0000 Cl  0  0  0  0  0  0  0  0  0  0  0  0
   -5.4587    0.1183    0.0000 C   0  0  0  0  0  0  0  0  0  0  0  0
   -6.0526   -1.2591    0.0000 O   0  0  0  0  0  0  0  0  0  0  0  0
   -6.3546    1.3214    0.0000 O   0  0  0  0  0  0  0  0  0  0  0  0
  2  1  1  1
  2  3  1  0
  3  4  1  0
  4  5  1  0
  5  6  2  0
  6  7  1  0
  7  8  2  0
  8  9  1  0
  7 10  1  0
 10 11  2  0
 11 12  1  0
 12 13  2  0
 13 14  1  0
 14 15  2  0
 15 16  1  0
  2 17  1  0
 17 18  2  0
 17 19  1  0
  9  4  2  0
 15 10  1  0
M  END
>  <rName>  (2376) 
Phe_4Ph_2Cl

>  <PQ_SYMBOL>  (2376) 
Phe_4Ph_2Cl

>  <FULL_NAME>  (2376) 
(S)-2-amino-3-(2'-chloro-[1,1'-biphenyl]-4-yl)propanoic acid

>  <IUPAC_CONDENSED>  (2376) 
Phe(4-Ph(2-Cl))

>  <IUPAC>  (2376) 
(2S)-2-amino-3-(4-(2-chlorophenyl)phenyl)propanoic acid

>  <TYPE>  (2376) 
Backbone

>  <CLASS>  (2376) 
alpha

>  <ANALOG>  (2376) 
Phe

>  <MOL_WT>  (2376) 
275.735

>  <LOGP>  (2376) 
2.961400000000001

>  <TPSA>  (2376) 
63.32000000000001

>  <POPULARITY>  (2376) 
4.3

>  <PROTECTED>  (2376) 
TRUE

>  <SMILES>  (2376) 
N[C@@H](Cc1(ccc(cc1)c2(ccccc2Cl)))C(=O)O

>  <INCHIKEY>  (2376) 
UHZXKTIUPOTGKP-AWEZNQCLSA-N

$$$$
Phe_2CF3_4Cl
     RDKit          2D

 17 17  0  0  0  0  0  0  0  0999 V2000
   -2.1777    2.1611    0.0000 N   0  0  0  0  0  0  0  0  0  0  0  0
   -2.3768    0.6744    0.0000 C   0  0  0  0  0  0  0  0  0  0  0  0
   -1.1888   -0.2414    0.0000 C   0  0  0  0  0  0  0  0  0  0  0  0
    0.1983    0.3295    0.0000 C   0  0  0  0  0  0  0  0  0  0  0  0
    0.3974    1.8163    0.0000 C   0  0  0  0  0  0  0  0  0  0  0  0
    1.7845    2.3872    0.0000 C   0  0  0  0  0  0  0  0  0  0  0  0
    2.9725    1.4714    0.0000 C   0  0  0  0  0  0  0  0  0  0  0  0
    4.3596    2.0423    0.0000 Cl  0  0  0  0  0  0  0  0  0  0  0  0
    2.7734   -0.0153    0.0000 C   0  0  0  0  0  0  0  0  0  0  0  0
    1.3863   -0.5863    0.0000 C   0  0  0  0  0  0  0  0  0  0  0  0
    1.1872   -2.0730    0.0000 C   0  0  0  0  0  0  0  0  0  0  0  0
    0.9881   -3.5597    0.0000 F   0  0  0  0  0  0  0  0  0  0  0  0
    2.6739   -2.2721    0.0000 F   0  0  0  0  0  0  0  0  0  0  0  0
   -0.2995   -1.8739    0.0000 F   0  0  0  0  0  0  0  0  0  0  0  0
   -3.7639    0.1035    0.0000 C   0  0  0  0  0  0  0  0  0  0  0  0
   -3.9630   -1.3833    0.0000 O   0  0  0  0  0  0  0  0  0  0  0  0
   -4.9518    1.0193    0.0000 O   0  0  0  0  0  0  0  0  0  0  0  0
  2  1  1  1
  2  3  1  0
  3  4  1  0
  4  5  1  0
  5  6  2  0
  6  7  1  0
  7  8  1  0
  7  9  2  0
  9 10  1  0
 10 11  1  0
 11 12  1  0
 11 13  1  0
 11 14  1  0
  2 15  1  0
 15 16  2  0
 15 17  1  0
 10  4  2  0
M  END
>  <rName>  (2377) 
Phe_2CF3_4Cl

>  <PQ_SYMBOL>  (2377) 
Phe_2CF3_4Cl

>  <FULL_NAME>  (2377) 
(S)-2-amino-3-(4-chloro-2-(trifluoromethyl)phenyl)propanoic acid

>  <IUPAC_CONDENSED>  (2377) 
Phe(2-CF3,4-Cl)

>  <IUPAC>  (2377) 
(2S)-2-amino-3-(4-chloro-2-(trifluoromethyl)phenyl)propanoic acid

>  <TYPE>  (2377) 
Backbone

>  <CLASS>  (2377) 
alpha

>  <ANALOG>  (2377) 
Phe

>  <MOL_WT>  (2377) 
267.63399999999996

>  <LOGP>  (2377) 
2.3132

>  <TPSA>  (2377) 
63.32000000000001

>  <POPULARITY>  (2377) 
2.7

>  <PROTECTED>  (2377) 
TRUE

>  <SMILES>  (2377) 
N[C@@H](Cc1(ccc(Cl)cc1C(F)(F)F))C(=O)O

>  <INCHIKEY>  (2377) 
RXPDRKOMXKBBBM-QMMMGPOBSA-N

$$$$
Thr_allyl
     RDKit          2D

 11 10  0  0  0  0  0  0  0  0999 V2000
   -0.0083    1.5488    0.0000 N   0  0  0  0  0  0  0  0  0  0  0  0
   -0.9169    0.3553    0.0000 C   0  0  0  0  0  0  0  0  0  0  0  0
   -0.3376   -1.0284    0.0000 C   0  0  0  0  0  0  0  0  0  0  0  0
    1.1503   -1.2185    0.0000 O   0  0  0  0  0  0  0  0  0  0  0  0
    2.0589   -0.0250    0.0000 C   0  0  0  0  0  0  0  0  0  0  0  0
    3.5468   -0.2151    0.0000 C   0  0  0  0  0  0  0  0  0  0  0  0
    4.4554    0.9784    0.0000 C   0  0  0  0  0  0  0  0  0  0  0  0
   -1.2462   -2.2218    0.0000 C   0  0  0  0  0  0  0  0  0  0  0  0
   -2.4048    0.5454    0.0000 C   0  0  0  0  0  0  0  0  0  0  0  0
   -3.3134   -0.6481    0.0000 O   0  0  0  0  0  0  0  0  0  0  0  0
   -2.9841    1.9290    0.0000 O   0  0  0  0  0  0  0  0  0  0  0  0
  2  1  1  1
  2  3  1  0
  3  4  1  0
  4  5  1  0
  5  6  1  0
  6  7  2  0
  3  8  1  6
  2  9  1  0
  9 10  2  0
  9 11  1  0
M  END
>  <rName>  (2378) 
Thr_allyl

>  <PQ_SYMBOL>  (2378) 
Thr_allyl

>  <FULL_NAME>  (2378) 
O-allyl-L-threonine

>  <IUPAC_CONDENSED>  (2378) 
Thr(allyl)

>  <IUPAC>  (2378) 
(2S,3R)-2-amino-3-((prop-2-en-1-yl)oxy)butanoic acid

>  <TYPE>  (2378) 
Backbone

>  <CLASS>  (2378) 
alpha

>  <ANALOG>  (2378) 
Thr

>  <MOL_WT>  (2378) 
159.185

>  <LOGP>  (2378) 
-0.01060000000000022

>  <TPSA>  (2378) 
72.55

>  <POPULARITY>  (2378) 
5.4

>  <PROTECTED>  (2378) 
TRUE

>  <SMILES>  (2378) 
N[C@@H]([C@H](OCC=C)C)C(=O)O

>  <INCHIKEY>  (2378) 
DSQHMLACRFGVEJ-RITPCOANSA-N

$$$$
3Pal_2CN
     RDKit          2D

 14 14  0  0  0  0  0  0  0  0999 V2000
   -1.7887    1.9295    0.0000 N   0  0  0  0  0  0  0  0  0  0  0  0
   -1.9182    0.4351    0.0000 C   0  0  0  0  0  0  0  0  0  0  0  0
   -0.6887   -0.4243    0.0000 C   0  0  0  0  0  0  0  0  0  0  0  0
    0.6702    0.2108    0.0000 C   0  0  0  0  0  0  0  0  0  0  0  0
    0.7997    1.7052    0.0000 C   0  0  0  0  0  0  0  0  0  0  0  0
    2.1586    2.3403    0.0000 C   0  0  0  0  0  0  0  0  0  0  0  0
    3.3881    1.4809    0.0000 C   0  0  0  0  0  0  0  0  0  0  0  0
    3.2586   -0.0135    0.0000 N   0  0  0  0  0  0  0  0  0  0  0  0
    1.8997   -0.6485    0.0000 C   0  0  0  0  0  0  0  0  0  0  0  0
    1.7702   -2.1429    0.0000 C   0  0  0  0  0  0  0  0  0  0  0  0
    1.6407   -3.6373    0.0000 N   0  0  0  0  0  0  0  0  0  0  0  0
   -3.2771   -0.2000    0.0000 C   0  0  0  0  0  0  0  0  0  0  0  0
   -3.4066   -1.6944    0.0000 O   0  0  0  0  0  0  0  0  0  0  0  0
   -4.5065    0.6593    0.0000 O   0  0  0  0  0  0  0  0  0  0  0  0
  2  1  1  1
  2  3  1  0
  3  4  1  0
  4  5  2  0
  5  6  1  0
  6  7  2  0
  7  8  1  0
  8  9  2  0
  9 10  1  0
 10 11  3  0
  2 12  1  0
 12 13  2  0
 12 14  1  0
  9  4  1  0
M  END
>  <rName>  (2379) 
3Pal_2CN

>  <PQ_SYMBOL>  (2379) 
3Pal_2CN

>  <FULL_NAME>  (2379) 
(S)-2-amino-3-(2-cyanopyridin-3-yl)propanoic acid

>  <IUPAC_CONDENSED>  (2379) 
3Pal(2-CN)

>  <IUPAC>  (2379) 
(2S)-2-amino-3-(2-(nitrilomethyl)pyridin-3-yl)propanoic acid

>  <TYPE>  (2379) 
Backbone

>  <CLASS>  (2379) 
alpha

>  <ANALOG>  (2379) 
Phe

>  <MOL_WT>  (2379) 
191.18999999999997

>  <LOGP>  (2379) 
-0.09232000000000001

>  <TPSA>  (2379) 
100

>  <POPULARITY>  (2379) 
2.7

>  <PROTECTED>  (2379) 
TRUE

>  <SMILES>  (2379) 
N[C@@H](Cc1(cccnc1C#N))C(=O)O

>  <INCHIKEY>  (2379) 
QZOMLJIJFFBNPC-ZETCQYMHSA-N

$$$$
3Pal_4NH2
     RDKit          2D

 13 13  0  0  0  0  0  0  0  0999 V2000
   -1.4864    1.8099    0.0000 N   0  0  0  0  0  0  0  0  0  0  0  0
   -1.7669    0.3364    0.0000 C   0  0  0  0  0  0  0  0  0  0  0  0
   -0.6311   -0.6433    0.0000 C   0  0  0  0  0  0  0  0  0  0  0  0
    0.7853   -0.1495    0.0000 C   0  0  0  0  0  0  0  0  0  0  0  0
    1.0658    1.3241    0.0000 C   0  0  0  0  0  0  0  0  0  0  0  0
    2.4822    1.8179    0.0000 N   0  0  0  0  0  0  0  0  0  0  0  0
    3.6181    0.8382    0.0000 C   0  0  0  0  0  0  0  0  0  0  0  0
    3.3376   -0.6353    0.0000 C   0  0  0  0  0  0  0  0  0  0  0  0
    1.9212   -1.1292    0.0000 C   0  0  0  0  0  0  0  0  0  0  0  0
    1.6407   -2.6027    0.0000 N   0  0  0  0  0  0  0  0  0  0  0  0
   -3.1833   -0.1575    0.0000 C   0  0  0  0  0  0  0  0  0  0  0  0
   -3.4638   -1.6310    0.0000 O   0  0  0  0  0  0  0  0  0  0  0  0
   -4.3192    0.8222    0.0000 O   0  0  0  0  0  0  0  0  0  0  0  0
  2  1  1  1
  2  3  1  0
  3  4  1  0
  4  5  1  0
  5  6  2  0
  6  7  1  0
  7  8  2  0
  8  9  1  0
  9 10  1  0
  2 11  1  0
 11 12  2  0
 11 13  1  0
  9  4  2  0
M  END
>  <rName>  (2380) 
3Pal_4NH2

>  <PQ_SYMBOL>  (2380) 
3Pal_4NH2

>  <FULL_NAME>  (2380) 
(S)-2-amino-3-(4-aminopyridin-3-yl)propanoic acid

>  <IUPAC_CONDENSED>  (2380) 
3Pal(4-NH2)

>  <IUPAC>  (2380) 
(2S)-2-amino-3-(4-aminopyridin-3-yl)propanoic acid

>  <TYPE>  (2380) 
Backbone

>  <CLASS>  (2380) 
alpha

>  <ANALOG>  (2380) 
Phe

>  <MOL_WT>  (2380) 
181.19499999999996

>  <LOGP>  (2380) 
-0.3818000000000002

>  <TPSA>  (2380) 
102.23

>  <POPULARITY>  (2380) 
3.4

>  <PROTECTED>  (2380) 
TRUE

>  <SMILES>  (2380) 
N[C@@H](Cc1(cnccc1N))C(=O)O

>  <INCHIKEY>  (2380) 
MAKIXRNAHYESGF-ZETCQYMHSA-N

$$$$
Phe_3F_5CO2H
     RDKit          2D

 16 16  0  0  0  0  0  0  0  0999 V2000
   -2.6682    1.4912    0.0000 N   0  0  0  0  0  0  0  0  0  0  0  0
   -2.7668   -0.0056    0.0000 C   0  0  0  0  0  0  0  0  0  0  0  0
   -1.5199   -0.8394    0.0000 C   0  0  0  0  0  0  0  0  0  0  0  0
   -0.1744   -0.1764    0.0000 C   0  0  0  0  0  0  0  0  0  0  0  0
   -0.0757    1.3203    0.0000 C   0  0  0  0  0  0  0  0  0  0  0  0
    1.2698    1.9833    0.0000 C   0  0  0  0  0  0  0  0  0  0  0  0
    1.3685    3.4800    0.0000 F   0  0  0  0  0  0  0  0  0  0  0  0
    2.5167    1.1495    0.0000 C   0  0  0  0  0  0  0  0  0  0  0  0
    2.4181   -0.3473    0.0000 C   0  0  0  0  0  0  0  0  0  0  0  0
    1.0725   -1.0102    0.0000 C   0  0  0  0  0  0  0  0  0  0  0  0
    3.6650   -1.1811    0.0000 C   0  0  0  0  0  0  0  0  0  0  0  0
    5.0105   -0.5181    0.0000 O   0  0  0  0  0  0  0  0  0  0  0  0
    3.5664   -2.6778    0.0000 O   0  0  0  0  0  0  0  0  0  0  0  0
   -4.1124   -0.6685    0.0000 C   0  0  0  0  0  0  0  0  0  0  0  0
   -4.2110   -2.1653    0.0000 O   0  0  0  0  0  0  0  0  0  0  0  0
   -5.3593    0.1653    0.0000 O   0  0  0  0  0  0  0  0  0  0  0  0
  2  1  1  1
  2  3  1  0
  3  4  1  0
  4  5  1  0
  5  6  2  0
  6  7  1  0
  6  8  1  0
  8  9  2  0
  9 10  1  0
  9 11  1  0
 11 12  2  0
 11 13  1  0
  2 14  1  0
 14 15  2  0
 14 16  1  0
 10  4  2  0
M  END
>  <rName>  (2381) 
Phe_3F_5CO2H

>  <PQ_SYMBOL>  (2381) 
Phe_3F_5CO2H

>  <FULL_NAME>  (2381) 
(S)-3-(2-amino-2-carboxyethyl)-5-fluorobenzoic acid

>  <IUPAC_CONDENSED>  (2381) 
Phe(3-F,5-CO2H)

>  <IUPAC>  (2381) 
3-((2S)-2-amino-3-hydroxy-3-oxopropyl)-5-fluorobenzene-1-carboxylic acid

>  <TYPE>  (2381) 
Backbone

>  <CLASS>  (2381) 
alpha

>  <ANALOG>  (2381) 
Phe

>  <MOL_WT>  (2381) 
227.19099999999997

>  <LOGP>  (2381) 
0.47829999999999984

>  <TPSA>  (2381) 
100.62000000000002

>  <POPULARITY>  (2381) 
2.7

>  <PROTECTED>  (2381) 
TRUE

>  <SMILES>  (2381) 
N[C@@H](Cc1(cc(F)cc(c1)C(=O)O))C(=O)O

>  <INCHIKEY>  (2381) 
RHWVTHNAUZJWKU-QMMMGPOBSA-N

$$$$
Ala_pyrimid4yl_6SMe
     RDKit          2D

 14 14  0  0  0  0  0  0  0  0999 V2000
   -1.4396    1.6301    0.0000 N   0  0  0  0  0  0  0  0  0  0  0  0
   -2.1525    0.3103    0.0000 C   0  0  0  0  0  0  0  0  0  0  0  0
   -1.3660   -0.9669    0.0000 C   0  0  0  0  0  0  0  0  0  0  0  0
    0.1334   -0.9245    0.0000 C   0  0  0  0  0  0  0  0  0  0  0  0
    0.8463    0.3953    0.0000 C   0  0  0  0  0  0  0  0  0  0  0  0
    2.3457    0.4377    0.0000 C   0  0  0  0  0  0  0  0  0  0  0  0
    3.1322   -0.8396    0.0000 N   0  0  0  0  0  0  0  0  0  0  0  0
    2.4192   -2.1593    0.0000 C   0  0  0  0  0  0  0  0  0  0  0  0
    0.9198   -2.2018    0.0000 N   0  0  0  0  0  0  0  0  0  0  0  0
    3.0586    1.7575    0.0000 S   0  0  0  0  0  0  0  0  0  0  0  0
    4.5580    1.7999    0.0000 C   0  0  0  0  0  0  0  0  0  0  0  0
   -3.6519    0.2679    0.0000 C   0  0  0  0  0  0  0  0  0  0  0  0
   -4.3648   -1.0519    0.0000 O   0  0  0  0  0  0  0  0  0  0  0  0
   -4.4384    1.5452    0.0000 O   0  0  0  0  0  0  0  0  0  0  0  0
  2  1  1  1
  2  3  1  0
  3  4  1  0
  4  5  2  0
  5  6  1  0
  6  7  2  0
  7  8  1  0
  8  9  2  0
  6 10  1  0
 10 11  1  0
  2 12  1  0
 12 13  2  0
 12 14  1  0
  9  4  1  0
M  END
>  <rName>  (2382) 
Ala_pyrimid4yl_6SMe

>  <PQ_SYMBOL>  (2382) 
Ala_pyrimid4yl_6SMe

>  <FULL_NAME>  (2382) 
(S)-2-amino-3-(6-(methylthio)pyrimidin-4-yl)propanoic acid

>  <IUPAC_CONDENSED>  (2382) 
Ala(pyrimid-4-yl(6-SMe))

>  <IUPAC>  (2382) 
(2S)-2-amino-3-(6-(methylsulfanyl)pyrimidin-4-yl)propanoic acid

>  <TYPE>  (2382) 
Backbone

>  <CLASS>  (2382) 
alpha

>  <ANALOG>  (2382) 
Phe

>  <MOL_WT>  (2382) 
213.26199999999997

>  <LOGP>  (2382) 
0.1529000000000002

>  <TPSA>  (2382) 
89.10000000000001

>  <POPULARITY>  (2382) 
2.2

>  <PROTECTED>  (2382) 
TRUE

>  <SMILES>  (2382) 
N[C@@H](Cc1(cc(ncn1)SC))C(=O)O

>  <INCHIKEY>  (2382) 
NDAGRIIWLZEAIH-LURJTMIESA-N

$$$$
Ala_quinolin6yl_2Me
     RDKit          2D

 17 18  0  0  0  0  0  0  0  0999 V2000
   -3.0886    1.6988    0.0000 N   0  0  0  0  0  0  0  0  0  0  0  0
   -3.3834    0.2280    0.0000 C   0  0  0  0  0  0  0  0  0  0  0  0
   -2.2570   -0.7626    0.0000 C   0  0  0  0  0  0  0  0  0  0  0  0
   -0.8359   -0.2824    0.0000 C   0  0  0  0  0  0  0  0  0  0  0  0
   -0.5412    1.1883    0.0000 C   0  0  0  0  0  0  0  0  0  0  0  0
    0.8799    1.6685    0.0000 C   0  0  0  0  0  0  0  0  0  0  0  0
    2.0062    0.6778    0.0000 C   0  0  0  0  0  0  0  0  0  0  0  0
    3.4273    1.1580    0.0000 N   0  0  0  0  0  0  0  0  0  0  0  0
    4.5537    0.1674    0.0000 C   0  0  0  0  0  0  0  0  0  0  0  0
    5.9747    0.6475    0.0000 C   0  0  0  0  0  0  0  0  0  0  0  0
    4.2589   -1.3034    0.0000 C   0  0  0  0  0  0  0  0  0  0  0  0
    2.8379   -1.7835    0.0000 C   0  0  0  0  0  0  0  0  0  0  0  0
    1.7115   -0.7929    0.0000 C   0  0  0  0  0  0  0  0  0  0  0  0
    0.2904   -1.2731    0.0000 C   0  0  0  0  0  0  0  0  0  0  0  0
   -4.8044   -0.2521    0.0000 C   0  0  0  0  0  0  0  0  0  0  0  0
   -5.0992   -1.7229    0.0000 O   0  0  0  0  0  0  0  0  0  0  0  0
   -5.9308    0.7385    0.0000 O   0  0  0  0  0  0  0  0  0  0  0  0
  2  1  1  1
  2  3  1  0
  3  4  1  0
  4  5  1  0
  5  6  2  0
  6  7  1  0
  7  8  2  0
  8  9  1  0
  9 10  1  0
  9 11  2  0
 11 12  1  0
 12 13  2  0
 13 14  1  0
  2 15  1  0
 15 16  2  0
 15 17  1  0
 13  7  1  0
 14  4  2  0
M  END
>  <rName>  (2383) 
Ala_quinolin6yl_2Me

>  <PQ_SYMBOL>  (2383) 
Ala_quinolin6yl_2Me

>  <FULL_NAME>  (2383) 
(S)-2-amino-3-(2-methylquinolin-6-yl)propanoic acid

>  <IUPAC_CONDENSED>  (2383) 
Ala(quinolin-6-yl(2-Me))

>  <IUPAC>  (2383) 
(2S)-2-amino-3-(2-methylquinolin-6-yl)propanoic acid

>  <TYPE>  (2383) 
Backbone

>  <CLASS>  (2383) 
alpha

>  <ANALOG>  (2383) 
Phe

>  <MOL_WT>  (2383) 
230.267

>  <LOGP>  (2383) 
1.4976200000000002

>  <TPSA>  (2383) 
76.21

>  <POPULARITY>  (2383) 
5.1

>  <PROTECTED>  (2383) 
TRUE

>  <SMILES>  (2383) 
N[C@@H](Cc2(ccc1(nc(C)ccc1c2)))C(=O)O

>  <INCHIKEY>  (2383) 
VTHJEFJVDSNDCV-NSHDSACASA-N

$$$$
Phe_2Me_4CO2H
     RDKit          2D

 16 16  0  0  0  0  0  0  0  0999 V2000
   -2.2742    1.8739    0.0000 N   0  0  0  0  0  0  0  0  0  0  0  0
   -2.7626    0.4557    0.0000 C   0  0  0  0  0  0  0  0  0  0  0  0
   -1.7786   -0.6765    0.0000 C   0  0  0  0  0  0  0  0  0  0  0  0
   -0.3062   -0.3903    0.0000 C   0  0  0  0  0  0  0  0  0  0  0  0
    0.1823    1.0279    0.0000 C   0  0  0  0  0  0  0  0  0  0  0  0
    1.6547    1.3140    0.0000 C   0  0  0  0  0  0  0  0  0  0  0  0
    2.6387    0.1819    0.0000 C   0  0  0  0  0  0  0  0  0  0  0  0
    2.1503   -1.2363    0.0000 C   0  0  0  0  0  0  0  0  0  0  0  0
    0.6779   -1.5225    0.0000 C   0  0  0  0  0  0  0  0  0  0  0  0
    0.1894   -2.9407    0.0000 C   0  0  0  0  0  0  0  0  0  0  0  0
    4.1112    0.4680    0.0000 C   0  0  0  0  0  0  0  0  0  0  0  0
    4.5996    1.8863    0.0000 O   0  0  0  0  0  0  0  0  0  0  0  0
    5.0952   -0.6641    0.0000 O   0  0  0  0  0  0  0  0  0  0  0  0
   -4.2351    0.1695    0.0000 C   0  0  0  0  0  0  0  0  0  0  0  0
   -4.7235   -1.2487    0.0000 O   0  0  0  0  0  0  0  0  0  0  0  0
   -5.2191    1.3017    0.0000 O   0  0  0  0  0  0  0  0  0  0  0  0
  2  1  1  1
  2  3  1  0
  3  4  1  0
  4  5  1  0
  5  6  2  0
  6  7  1  0
  7  8  2  0
  8  9  1  0
  9 10  1  0
  7 11  1  0
 11 12  2  0
 11 13  1  0
  2 14  1  0
 14 15  2  0
 14 16  1  0
  9  4  2  0
M  END
>  <rName>  (2384) 
Phe_2Me_4CO2H

>  <PQ_SYMBOL>  (2384) 
Phe_2Me_4CO2H

>  <FULL_NAME>  (2384) 
(S)-4-(2-amino-2-carboxyethyl)-3-methylbenzoic acid

>  <IUPAC_CONDENSED>  (2384) 
Phe(2-Me,4-CO2H)

>  <IUPAC>  (2384) 
4-((2S)-2-amino-3-hydroxy-3-oxopropyl)-3-methylbenzene-1-carboxylic acid

>  <TYPE>  (2384) 
Backbone

>  <CLASS>  (2384) 
alpha

>  <ANALOG>  (2384) 
Phe

>  <MOL_WT>  (2384) 
223.22799999999995

>  <LOGP>  (2384) 
0.64762

>  <TPSA>  (2384) 
100.62000000000002

>  <POPULARITY>  (2384) 
2.9

>  <PROTECTED>  (2384) 
TRUE

>  <SMILES>  (2384) 
N[C@@H](Cc1(ccc(cc1C)C(=O)O))C(=O)O

>  <INCHIKEY>  (2384) 
BCCNJCIBDRJGPB-VIFPVBQESA-N

$$$$
Ala_pyrid2yl_6Me
     RDKit          2D

 13 13  0  0  0  0  0  0  0  0999 V2000
   -1.7680    1.6690    0.0000 N   0  0  0  0  0  0  0  0  0  0  0  0
   -1.9932    0.1860    0.0000 C   0  0  0  0  0  0  0  0  0  0  0  0
   -0.8215   -0.7506    0.0000 C   0  0  0  0  0  0  0  0  0  0  0  0
    0.5754   -0.2041    0.0000 C   0  0  0  0  0  0  0  0  0  0  0  0
    0.8006    1.2789    0.0000 C   0  0  0  0  0  0  0  0  0  0  0  0
    2.1976    1.8254    0.0000 C   0  0  0  0  0  0  0  0  0  0  0  0
    3.3693    0.8888    0.0000 C   0  0  0  0  0  0  0  0  0  0  0  0
    3.1441   -0.5942    0.0000 C   0  0  0  0  0  0  0  0  0  0  0  0
    4.3158   -1.5307    0.0000 C   0  0  0  0  0  0  0  0  0  0  0  0
    1.7472   -1.1406    0.0000 N   0  0  0  0  0  0  0  0  0  0  0  0
   -3.3901   -0.3605    0.0000 C   0  0  0  0  0  0  0  0  0  0  0  0
   -3.6153   -1.8435    0.0000 O   0  0  0  0  0  0  0  0  0  0  0  0
   -4.5618    0.5760    0.0000 O   0  0  0  0  0  0  0  0  0  0  0  0
  2  1  1  1
  2  3  1  0
  3  4  1  0
  4  5  2  0
  5  6  1  0
  6  7  2  0
  7  8  1  0
  8  9  1  0
  8 10  2  0
  2 11  1  0
 11 12  2  0
 11 13  1  0
 10  4  1  0
M  END
>  <rName>  (2385) 
Ala_pyrid2yl_6Me

>  <PQ_SYMBOL>  (2385) 
Ala_pyrid2yl_6Me

>  <FULL_NAME>  (2385) 
(S)-2-amino-3-(6-methylpyridin-2-yl)propanoic acid

>  <IUPAC_CONDENSED>  (2385) 
Ala(pyrid-2-yl(6-Me))

>  <IUPAC>  (2385) 
(2S)-2-amino-3-(6-methylpyridin-2-yl)propanoic acid

>  <TYPE>  (2385) 
Backbone

>  <CLASS>  (2385) 
alpha

>  <ANALOG>  (2385) 
Phe

>  <MOL_WT>  (2385) 
180.20699999999997

>  <LOGP>  (2385) 
0.3444200000000001

>  <TPSA>  (2385) 
76.21

>  <POPULARITY>  (2385) 
4.7

>  <PROTECTED>  (2385) 
TRUE

>  <SMILES>  (2385) 
N[C@@H](Cc1(cccc(C)n1))C(=O)O

>  <INCHIKEY>  (2385) 
QNUVTERAUDHHKC-QMMMGPOBSA-N

$$$$
Phe_2NO2_4CF3
     RDKit          2D

 19 19  0  0  0  0  0  0  0  0999 V2000
   -2.4374    2.2852    0.0000 N   0  0  0  0  0  0  0  0  0  0  0  0
   -2.9555    0.8775    0.0000 C   0  0  0  0  0  0  0  0  0  0  0  0
   -1.9955   -0.2750    0.0000 C   0  0  0  0  0  0  0  0  0  0  0  0
   -0.5173   -0.0199    0.0000 C   0  0  0  0  0  0  0  0  0  0  0  0
    0.0008    1.3878    0.0000 C   0  0  0  0  0  0  0  0  0  0  0  0
    1.4790    1.6429    0.0000 C   0  0  0  0  0  0  0  0  0  0  0  0
    2.4390    0.4904    0.0000 C   0  0  0  0  0  0  0  0  0  0  0  0
    1.9209   -0.9173    0.0000 C   0  0  0  0  0  0  0  0  0  0  0  0
    0.4427   -1.1725    0.0000 C   0  0  0  0  0  0  0  0  0  0  0  0
   -0.0754   -2.5801    0.0000 N   0  0  0  0  0  0  0  0  0  0  0  0
   -1.5535   -2.8353    0.0000 O   0  0  0  0  0  0  0  0  0  0  0  0
    0.8846   -3.7327    0.0000 O   0  0  0  0  0  0  0  0  0  0  0  0
    3.9171    0.7455    0.0000 C   0  0  0  0  0  0  0  0  0  0  0  0
    5.3953    1.0006    0.0000 F   0  0  0  0  0  0  0  0  0  0  0  0
    4.1723   -0.7327    0.0000 F   0  0  0  0  0  0  0  0  0  0  0  0
    3.6620    2.2236    0.0000 F   0  0  0  0  0  0  0  0  0  0  0  0
   -4.4336    0.6224    0.0000 C   0  0  0  0  0  0  0  0  0  0  0  0
   -4.9517   -0.7853    0.0000 O   0  0  0  0  0  0  0  0  0  0  0  0
   -5.3936    1.7749    0.0000 O   0  0  0  0  0  0  0  0  0  0  0  0
  2  1  1  1
  2  3  1  0
  3  4  1  0
  4  5  1  0
  5  6  2  0
  6  7  1  0
  7  8  2  0
  8  9  1  0
  9 10  1  0
 10 11  2  0
 10 12  1  0
  7 13  1  0
 13 14  1  0
 13 15  1  0
 13 16  1  0
  2 17  1  0
 17 18  2  0
 17 19  1  0
  9  4  2  0
M  CHG  2  10   1  12  -1
M  END
>  <rName>  (2386) 
Phe_2NO2_4CF3

>  <PQ_SYMBOL>  (2386) 
Phe_2NO2_4CF3

>  <FULL_NAME>  (2386) 
(S)-2-amino-3-(2-nitro-4-(trifluoromethyl)phenyl)propanoic acid

>  <IUPAC_CONDENSED>  (2386) 
Phe(2-NO2,4-CF3)

>  <IUPAC>  (2386) 
(2S)-2-amino-3-(2-nitro-4-(trifluoromethyl)phenyl)propanoic acid

>  <TYPE>  (2386) 
Backbone

>  <CLASS>  (2386) 
alpha

>  <ANALOG>  (2386) 
Phe

>  <MOL_WT>  (2386) 
278.1859999999999

>  <LOGP>  (2386) 
1.568

>  <TPSA>  (2386) 
106.46

>  <POPULARITY>  (2386) 
2.6

>  <PROTECTED>  (2386) 
TRUE

>  <SMILES>  (2386) 
N[C@@H](Cc1(ccc(cc1[N+](=O)[O-])C(F)(F)F))C(=O)O

>  <INCHIKEY>  (2386) 
PJILYQVCCFLYSL-ZETCQYMHSA-N

$$$$
Phe_2Me_6CO2H
     RDKit          2D

 16 16  0  0  0  0  0  0  0  0999 V2000
   -2.0704    1.6856    0.0000 N   0  0  0  0  0  0  0  0  0  0  0  0
   -2.0347    0.1860    0.0000 C   0  0  0  0  0  0  0  0  0  0  0  0
   -0.7182   -0.5329    0.0000 C   0  0  0  0  0  0  0  0  0  0  0  0
    0.5626    0.2478    0.0000 C   0  0  0  0  0  0  0  0  0  0  0  0
    0.5269    1.7474    0.0000 C   0  0  0  0  0  0  0  0  0  0  0  0
   -0.7896    2.4663    0.0000 C   0  0  0  0  0  0  0  0  0  0  0  0
    1.8077    2.5281    0.0000 C   0  0  0  0  0  0  0  0  0  0  0  0
    3.1242    1.8092    0.0000 C   0  0  0  0  0  0  0  0  0  0  0  0
    3.1599    0.3096    0.0000 C   0  0  0  0  0  0  0  0  0  0  0  0
    1.8791   -0.4710    0.0000 C   0  0  0  0  0  0  0  0  0  0  0  0
    1.9148   -1.9706    0.0000 C   0  0  0  0  0  0  0  0  0  0  0  0
    0.6340   -2.7513    0.0000 O   0  0  0  0  0  0  0  0  0  0  0  0
    3.2313   -2.6895    0.0000 O   0  0  0  0  0  0  0  0  0  0  0  0
   -3.3156   -0.5947    0.0000 C   0  0  0  0  0  0  0  0  0  0  0  0
   -3.2799   -2.0943    0.0000 O   0  0  0  0  0  0  0  0  0  0  0  0
   -4.6321    0.1242    0.0000 O   0  0  0  0  0  0  0  0  0  0  0  0
  2  1  1  1
  2  3  1  0
  3  4  1  0
  4  5  2  0
  5  6  1  0
  5  7  1  0
  7  8  2  0
  8  9  1  0
  9 10  2  0
 10 11  1  0
 11 12  2  0
 11 13  1  0
  2 14  1  0
 14 15  2  0
 14 16  1  0
 10  4  1  0
M  END
>  <rName>  (2387) 
Phe_2Me_6CO2H

>  <PQ_SYMBOL>  (2387) 
Phe_2Me_6CO2H

>  <FULL_NAME>  (2387) 
(S)-2-(2-amino-2-carboxyethyl)-3-methylbenzoic acid

>  <IUPAC_CONDENSED>  (2387) 
Phe(2-Me,6-CO2H)

>  <IUPAC>  (2387) 
2-((2S)-2-amino-3-hydroxy-3-oxopropyl)-3-methylbenzene-1-carboxylic acid

>  <TYPE>  (2387) 
Backbone

>  <CLASS>  (2387) 
alpha

>  <ANALOG>  (2387) 
Phe

>  <MOL_WT>  (2387) 
223.22799999999995

>  <LOGP>  (2387) 
0.64762

>  <TPSA>  (2387) 
100.62000000000002

>  <POPULARITY>  (2387) 
2.7

>  <PROTECTED>  (2387) 
TRUE

>  <SMILES>  (2387) 
N[C@@H](Cc1(c(C)cccc1C(=O)O))C(=O)O

>  <INCHIKEY>  (2387) 
KBMVPHFGZCASFJ-VIFPVBQESA-N

$$$$
Phe_4pyrid4yl
     RDKit          2D

 18 19  0  0  0  0  0  0  0  0999 V2000
   -3.2769    1.7174    0.0000 N   0  0  0  0  0  0  0  0  0  0  0  0
   -3.8349    0.3251    0.0000 C   0  0  0  0  0  0  0  0  0  0  0  0
   -2.9082   -0.8544    0.0000 C   0  0  0  0  0  0  0  0  0  0  0  0
   -1.4234   -0.6415    0.0000 C   0  0  0  0  0  0  0  0  0  0  0  0
   -0.8653    0.7508    0.0000 C   0  0  0  0  0  0  0  0  0  0  0  0
    0.6195    0.9637    0.0000 C   0  0  0  0  0  0  0  0  0  0  0  0
    1.5463   -0.2158    0.0000 C   0  0  0  0  0  0  0  0  0  0  0  0
    0.9882   -1.6081    0.0000 C   0  0  0  0  0  0  0  0  0  0  0  0
   -0.4966   -1.8210    0.0000 C   0  0  0  0  0  0  0  0  0  0  0  0
    3.0311   -0.0029    0.0000 C   0  0  0  0  0  0  0  0  0  0  0  0
    3.9578   -1.1824    0.0000 C   0  0  0  0  0  0  0  0  0  0  0  0
    5.4427   -0.9695    0.0000 C   0  0  0  0  0  0  0  0  0  0  0  0
    6.0007    0.4228    0.0000 N   0  0  0  0  0  0  0  0  0  0  0  0
    5.0740    1.6023    0.0000 C   0  0  0  0  0  0  0  0  0  0  0  0
    3.5891    1.3894    0.0000 C   0  0  0  0  0  0  0  0  0  0  0  0
   -5.3198    0.1122    0.0000 C   0  0  0  0  0  0  0  0  0  0  0  0
   -5.8778   -1.2801    0.0000 O   0  0  0  0  0  0  0  0  0  0  0  0
   -6.2465    1.2917    0.0000 O   0  0  0  0  0  0  0  0  0  0  0  0
  2  1  1  1
  2  3  1  0
  3  4  1  0
  4  5  1  0
  5  6  2  0
  6  7  1  0
  7  8  2  0
  8  9  1  0
  7 10  1  0
 10 11  1  0
 11 12  2  0
 12 13  1  0
 13 14  2  0
 14 15  1  0
  2 16  1  0
 16 17  2  0
 16 18  1  0
  9  4  2  0
 15 10  2  0
M  END
>  <rName>  (2388) 
Phe_4pyrid4yl

>  <PQ_SYMBOL>  (2388) 
Phe_4pyrid4yl

>  <FULL_NAME>  (2388) 
(S)-2-amino-3-(4-(pyridin-4-yl)phenyl)propanoic acid

>  <IUPAC_CONDENSED>  (2388) 
Phe(4-pyrid-4-yl)

>  <IUPAC>  (2388) 
(2S)-2-amino-3-(4-(pyridin-4-yl)phenyl)propanoic acid

>  <TYPE>  (2388) 
Backbone

>  <CLASS>  (2388) 
alpha

>  <ANALOG>  (2388) 
Phe

>  <MOL_WT>  (2388) 
242.278

>  <LOGP>  (2388) 
1.703

>  <TPSA>  (2388) 
76.21

>  <POPULARITY>  (2388) 
6.3

>  <PROTECTED>  (2388) 
TRUE

>  <SMILES>  (2388) 
N[C@@H](Cc1(ccc(cc1)c2(ccncc2)))C(=O)O

>  <INCHIKEY>  (2388) 
VLCKOHYUPSSERC-ZDUSSCGKSA-N

$$$$
Phe_2F_3CO2H
     RDKit          2D

 16 16  0  0  0  0  0  0  0  0999 V2000
   -2.7535    1.6987    0.0000 N   0  0  0  0  0  0  0  0  0  0  0  0
   -2.7597    0.1988    0.0000 C   0  0  0  0  0  0  0  0  0  0  0  0
   -1.4637   -0.5565    0.0000 C   0  0  0  0  0  0  0  0  0  0  0  0
   -0.1616    0.1882    0.0000 C   0  0  0  0  0  0  0  0  0  0  0  0
   -0.1555    1.6881    0.0000 C   0  0  0  0  0  0  0  0  0  0  0  0
    1.1466    2.4328    0.0000 C   0  0  0  0  0  0  0  0  0  0  0  0
    2.4426    1.6775    0.0000 C   0  0  0  0  0  0  0  0  0  0  0  0
    2.4364    0.1776    0.0000 C   0  0  0  0  0  0  0  0  0  0  0  0
    3.7324   -0.5777    0.0000 C   0  0  0  0  0  0  0  0  0  0  0  0
    5.0345    0.1670    0.0000 O   0  0  0  0  0  0  0  0  0  0  0  0
    3.7263   -2.0777    0.0000 O   0  0  0  0  0  0  0  0  0  0  0  0
    1.1344   -0.5671    0.0000 C   0  0  0  0  0  0  0  0  0  0  0  0
    1.1282   -2.0671    0.0000 F   0  0  0  0  0  0  0  0  0  0  0  0
   -4.0618   -0.5459    0.0000 C   0  0  0  0  0  0  0  0  0  0  0  0
   -4.0679   -2.0459    0.0000 O   0  0  0  0  0  0  0  0  0  0  0  0
   -5.3577    0.2094    0.0000 O   0  0  0  0  0  0  0  0  0  0  0  0
  2  1  1  1
  2  3  1  0
  3  4  1  0
  4  5  1  0
  5  6  2  0
  6  7  1  0
  7  8  2  0
  8  9  1  0
  9 10  2  0
  9 11  1  0
  8 12  1  0
 12 13  1  0
  2 14  1  0
 14 15  2  0
 14 16  1  0
 12  4  2  0
M  END
>  <rName>  (2389) 
Phe_2F_3CO2H

>  <PQ_SYMBOL>  (2389) 
Phe_2F_3CO2H

>  <FULL_NAME>  (2389) 
(S)-3-(2-amino-2-carboxyethyl)-2-fluorobenzoic acid

>  <IUPAC_CONDENSED>  (2389) 
Phe(2-F,3-CO2H)

>  <IUPAC>  (2389) 
3-((2S)-2-amino-3-hydroxy-3-oxopropyl)-2-fluorobenzene-1-carboxylic acid

>  <TYPE>  (2389) 
Backbone

>  <CLASS>  (2389) 
alpha

>  <ANALOG>  (2389) 
Phe

>  <MOL_WT>  (2389) 
227.19099999999995

>  <LOGP>  (2389) 
0.47829999999999984

>  <TPSA>  (2389) 
100.62000000000002

>  <POPULARITY>  (2389) 
2.4

>  <PROTECTED>  (2389) 
TRUE

>  <SMILES>  (2389) 
N[C@@H](Cc1(cccc(C(=O)O)c1F))C(=O)O

>  <INCHIKEY>  (2389) 
PKQPSDBAYBMTBJ-ZETCQYMHSA-N

$$$$
Phe_3CH2CN
     RDKit          2D

 15 15  0  0  0  0  0  0  0  0999 V2000
   -2.7904    1.4844    0.0000 N   0  0  0  0  0  0  0  0  0  0  0  0
   -2.6153   -0.0053    0.0000 C   0  0  0  0  0  0  0  0  0  0  0  0
   -1.2376   -0.5986    0.0000 C   0  0  0  0  0  0  0  0  0  0  0  0
   -0.0350    0.2979    0.0000 C   0  0  0  0  0  0  0  0  0  0  0  0
   -0.2101    1.7877    0.0000 C   0  0  0  0  0  0  0  0  0  0  0  0
    0.9925    2.6842    0.0000 C   0  0  0  0  0  0  0  0  0  0  0  0
    2.3702    2.0910    0.0000 C   0  0  0  0  0  0  0  0  0  0  0  0
    2.5453    0.6012    0.0000 C   0  0  0  0  0  0  0  0  0  0  0  0
    1.3427   -0.2953    0.0000 C   0  0  0  0  0  0  0  0  0  0  0  0
    3.9230    0.0080    0.0000 C   0  0  0  0  0  0  0  0  0  0  0  0
    4.0981   -1.4818    0.0000 C   0  0  0  0  0  0  0  0  0  0  0  0
    4.2732   -2.9715    0.0000 N   0  0  0  0  0  0  0  0  0  0  0  0
   -3.8179   -0.9018    0.0000 C   0  0  0  0  0  0  0  0  0  0  0  0
   -3.6429   -2.3916    0.0000 O   0  0  0  0  0  0  0  0  0  0  0  0
   -5.1956   -0.3086    0.0000 O   0  0  0  0  0  0  0  0  0  0  0  0
  2  1  1  1
  2  3  1  0
  3  4  1  0
  4  5  2  0
  5  6  1  0
  6  7  2  0
  7  8  1  0
  8  9  2  0
  8 10  1  0
 10 11  1  0
 11 12  3  0
  2 13  1  0
 13 14  2  0
 13 15  1  0
  9  4  1  0
M  END
>  <rName>  (2390) 
Phe_3CH2CN

>  <PQ_SYMBOL>  (2390) 
Phe_3CH2CN

>  <FULL_NAME>  (2390) 
(S)-2-amino-3-(3-(cyanomethyl)phenyl)propanoic acid

>  <IUPAC_CONDENSED>  (2390) 
Phe(3-CH2CN)

>  <IUPAC>  (2390) 
(2S)-2-amino-3-(3-(2-nitriloethyl)phenyl)propanoic acid

>  <TYPE>  (2390) 
Backbone

>  <CLASS>  (2390) 
alpha

>  <ANALOG>  (2390) 
Phe

>  <MOL_WT>  (2390) 
204.22899999999996

>  <LOGP>  (2390) 
0.7070800000000002

>  <TPSA>  (2390) 
87.11

>  <POPULARITY>  (2390) 
2.8

>  <PROTECTED>  (2390) 
TRUE

>  <SMILES>  (2390) 
N[C@@H](Cc1(cccc(c1)CC#N))C(=O)O

>  <INCHIKEY>  (2390) 
PZGFLYDKSWHGGV-JTQLQIEISA-N

$$$$
Ala_2Meindazolyl
     RDKit          2D

 16 17  0  0  0  0  0  0  0  0999 V2000
   -2.8524    1.6457    0.0000 N   0  0  0  0  0  0  0  0  0  0  0  0
   -3.0906    0.1647    0.0000 C   0  0  0  0  0  0  0  0  0  0  0  0
   -1.9271   -0.7821    0.0000 C   0  0  0  0  0  0  0  0  0  0  0  0
   -0.5254   -0.2478    0.0000 C   0  0  0  0  0  0  0  0  0  0  0  0
   -0.2873    1.2331    0.0000 C   0  0  0  0  0  0  0  0  0  0  0  0
    1.1144    1.7674    0.0000 C   0  0  0  0  0  0  0  0  0  0  0  0
    2.2779    0.8206    0.0000 C   0  0  0  0  0  0  0  0  0  0  0  0
    3.7599    1.0517    0.0000 N   0  0  0  0  0  0  0  0  0  0  0  0
    4.4377   -0.2864    0.0000 N   0  0  0  0  0  0  0  0  0  0  0  0
    5.9187   -0.5246    0.0000 C   0  0  0  0  0  0  0  0  0  0  0  0
    3.3746   -1.3445    0.0000 C   0  0  0  0  0  0  0  0  0  0  0  0
    2.0397   -0.6604    0.0000 C   0  0  0  0  0  0  0  0  0  0  0  0
    0.6380   -1.1946    0.0000 C   0  0  0  0  0  0  0  0  0  0  0  0
   -4.4922   -0.3695    0.0000 C   0  0  0  0  0  0  0  0  0  0  0  0
   -4.7304   -1.8505    0.0000 O   0  0  0  0  0  0  0  0  0  0  0  0
   -5.6557    0.5772    0.0000 O   0  0  0  0  0  0  0  0  0  0  0  0
  2  1  1  1
  2  3  1  0
  3  4  1  0
  4  5  1  0
  5  6  2  0
  6  7  1  0
  7  8  2  0
  8  9  1  0
  9 10  1  0
  9 11  1  0
 11 12  2  0
 12 13  1  0
  2 14  1  0
 14 15  2  0
 14 16  1  0
 12  7  1  0
 13  4  2  0
M  END
>  <rName>  (2391) 
Ala_2Meindazolyl

>  <PQ_SYMBOL>  (2391) 
Ala_2Meindazolyl

>  <FULL_NAME>  (2391) 
(S)-2-amino-3-(2-methyl-2H-indazol-5-yl)propanoic acid

>  <IUPAC_CONDENSED>  (2391) 
Ala(2-Me-indazolyl)

>  <IUPAC>  (2391) 
(2S)-2-amino-3-(8-methyl-7,8-diazabicyclo[4.3.0]nona-1(9),2,4,6-tetraen-3-yl)propanoic acid

>  <TYPE>  (2391) 
Backbone

>  <CLASS>  (2391) 
alpha

>  <ANALOG>  (2391) 
Phe

>  <MOL_WT>  (2391) 
219.244

>  <LOGP>  (2391) 
0.5276999999999998

>  <TPSA>  (2391) 
81.14

>  <POPULARITY>  (2391) 
3.1

>  <PROTECTED>  (2391) 
TRUE

>  <SMILES>  (2391) 
N[C@@H](Cc2(ccc1(nn(C)cc1c2)))C(=O)O

>  <INCHIKEY>  (2391) 
OUMVLBFOBPVUHK-VIFPVBQESA-N

$$$$
Phe_3Me_4CF3
     RDKit          2D

 17 17  0  0  0  0  0  0  0  0999 V2000
   -2.7479    1.7226    0.0000 N   0  0  0  0  0  0  0  0  0  0  0  0
   -3.1890    0.2890    0.0000 C   0  0  0  0  0  0  0  0  0  0  0  0
   -2.1680   -0.8099    0.0000 C   0  0  0  0  0  0  0  0  0  0  0  0
   -0.7059   -0.4752    0.0000 C   0  0  0  0  0  0  0  0  0  0  0  0
   -0.2647    0.9585    0.0000 C   0  0  0  0  0  0  0  0  0  0  0  0
    1.1975    1.2932    0.0000 C   0  0  0  0  0  0  0  0  0  0  0  0
    2.2185    0.1943    0.0000 C   0  0  0  0  0  0  0  0  0  0  0  0
    1.7773   -1.2393    0.0000 C   0  0  0  0  0  0  0  0  0  0  0  0
    2.7983   -2.3382    0.0000 C   0  0  0  0  0  0  0  0  0  0  0  0
    0.3151   -1.5741    0.0000 C   0  0  0  0  0  0  0  0  0  0  0  0
    3.6806    0.5291    0.0000 C   0  0  0  0  0  0  0  0  0  0  0  0
    5.1428    0.8639    0.0000 F   0  0  0  0  0  0  0  0  0  0  0  0
    3.3459    1.9913    0.0000 F   0  0  0  0  0  0  0  0  0  0  0  0
    4.0154   -0.9331    0.0000 F   0  0  0  0  0  0  0  0  0  0  0  0
   -4.6512   -0.0458    0.0000 C   0  0  0  0  0  0  0  0  0  0  0  0
   -5.0924   -1.4794    0.0000 O   0  0  0  0  0  0  0  0  0  0  0  0
   -5.6722    1.0531    0.0000 O   0  0  0  0  0  0  0  0  0  0  0  0
  2  1  1  1
  2  3  1  0
  3  4  1  0
  4  5  1  0
  5  6  2  0
  6  7  1  0
  7  8  2  0
  8  9  1  0
  8 10  1  0
  7 11  1  0
 11 12  1  0
 11 13  1  0
 11 14  1  0
  2 15  1  0
 15 16  2  0
 15 17  1  0
 10  4  2  0
M  END
>  <rName>  (2392) 
Phe_3Me_4CF3

>  <PQ_SYMBOL>  (2392) 
Phe_3Me_4CF3

>  <FULL_NAME>  (2392) 
(S)-2-amino-3-(3-methyl-4-(trifluoromethyl)phenyl)propanoic acid

>  <IUPAC_CONDENSED>  (2392) 
Phe(3-Me,4-CF3)

>  <IUPAC>  (2392) 
(2S)-2-amino-3-(3-methyl-4-(trifluoromethyl)phenyl)propanoic acid

>  <TYPE>  (2392) 
Backbone

>  <CLASS>  (2392) 
alpha

>  <ANALOG>  (2392) 
Phe

>  <MOL_WT>  (2392) 
247.21599999999995

>  <LOGP>  (2392) 
1.96822

>  <TPSA>  (2392) 
63.32000000000001

>  <POPULARITY>  (2392) 
3.4

>  <PROTECTED>  (2392) 
TRUE

>  <SMILES>  (2392) 
N[C@@H](Cc1(ccc(c(C)c1)C(F)(F)F))C(=O)O

>  <INCHIKEY>  (2392) 
SJYXHXWZZLSPJK-VIFPVBQESA-N

$$$$
Phe_2EtO2H
     RDKit          2D

 16 16  0  0  0  0  0  0  0  0999 V2000
   -2.9416    1.4600    0.0000 N   0  0  0  0  0  0  0  0  0  0  0  0
   -2.5896    0.0018    0.0000 C   0  0  0  0  0  0  0  0  0  0  0  0
   -1.1509   -0.4224    0.0000 C   0  0  0  0  0  0  0  0  0  0  0  0
   -0.0641    0.6114    0.0000 C   0  0  0  0  0  0  0  0  0  0  0  0
   -0.4160    2.0695    0.0000 C   0  0  0  0  0  0  0  0  0  0  0  0
    0.6708    3.1034    0.0000 C   0  0  0  0  0  0  0  0  0  0  0  0
    2.1095    2.6791    0.0000 C   0  0  0  0  0  0  0  0  0  0  0  0
    2.4615    1.2210    0.0000 C   0  0  0  0  0  0  0  0  0  0  0  0
    1.3747    0.1871    0.0000 C   0  0  0  0  0  0  0  0  0  0  0  0
    1.7266   -1.2710    0.0000 C   0  0  0  0  0  0  0  0  0  0  0  0
    3.1654   -1.6953    0.0000 C   0  0  0  0  0  0  0  0  0  0  0  0
    4.2522   -0.6614    0.0000 O   0  0  0  0  0  0  0  0  0  0  0  0
    3.5173   -3.1534    0.0000 O   0  0  0  0  0  0  0  0  0  0  0  0
   -3.6764   -1.0320    0.0000 C   0  0  0  0  0  0  0  0  0  0  0  0
   -3.3245   -2.4902    0.0000 O   0  0  0  0  0  0  0  0  0  0  0  0
   -5.1152   -0.6078    0.0000 O   0  0  0  0  0  0  0  0  0  0  0  0
  2  1  1  1
  2  3  1  0
  3  4  1  0
  4  5  2  0
  5  6  1  0
  6  7  2  0
  7  8  1  0
  8  9  2  0
  9 10  1  0
 10 11  1  0
 11 12  2  0
 11 13  1  0
  2 14  1  0
 14 15  2  0
 14 16  1  0
  9  4  1  0
M  END
>  <rName>  (2393) 
Phe_2EtO2H

>  <PQ_SYMBOL>  (2393) 
Phe_2EtO2H

>  <FULL_NAME>  (2393) 
(S)-2-amino-3-(2-(carboxymethyl)phenyl)propanoic acid

>  <IUPAC_CONDENSED>  (2393) 
Phe(2-EtO2H)

>  <IUPAC>  (2393) 
(2S)-2-amino-3-(2-(2-hydroxy-2-oxoethyl)phenyl)propanoic acid

>  <TYPE>  (2393) 
Backbone

>  <CLASS>  (2393) 
alpha

>  <ANALOG>  (2393) 
Phe

>  <MOL_WT>  (2393) 
223.22799999999995

>  <LOGP>  (2393) 
0.26809999999999967

>  <TPSA>  (2393) 
100.62000000000002

>  <POPULARITY>  (2393) 
3

>  <PROTECTED>  (2393) 
TRUE

>  <SMILES>  (2393) 
N[C@@H](Cc1(ccccc1CC(=O)O))C(=O)O

>  <INCHIKEY>  (2393) 
ZBEOQVHUFQJWCJ-VIFPVBQESA-N

$$$$
Phe_2Me_3CN
     RDKit          2D

 15 15  0  0  0  0  0  0  0  0999 V2000
   -2.4994    1.6682    0.0000 N   0  0  0  0  0  0  0  0  0  0  0  0
   -2.5103    0.1683    0.0000 C   0  0  0  0  0  0  0  0  0  0  0  0
   -1.2168   -0.5912    0.0000 C   0  0  0  0  0  0  0  0  0  0  0  0
    0.0877    0.1494    0.0000 C   0  0  0  0  0  0  0  0  0  0  0  0
    0.0986    1.6493    0.0000 C   0  0  0  0  0  0  0  0  0  0  0  0
    1.4031    2.3899    0.0000 C   0  0  0  0  0  0  0  0  0  0  0  0
    2.6966    1.6304    0.0000 C   0  0  0  0  0  0  0  0  0  0  0  0
    2.6857    0.1305    0.0000 C   0  0  0  0  0  0  0  0  0  0  0  0
    3.9792   -0.6290    0.0000 C   0  0  0  0  0  0  0  0  0  0  0  0
    5.2728   -1.3884    0.0000 N   0  0  0  0  0  0  0  0  0  0  0  0
    1.3812   -0.6101    0.0000 C   0  0  0  0  0  0  0  0  0  0  0  0
    1.3703   -2.1100    0.0000 C   0  0  0  0  0  0  0  0  0  0  0  0
   -3.8148   -0.5723    0.0000 C   0  0  0  0  0  0  0  0  0  0  0  0
   -3.8257   -2.0722    0.0000 O   0  0  0  0  0  0  0  0  0  0  0  0
   -5.1083    0.1872    0.0000 O   0  0  0  0  0  0  0  0  0  0  0  0
  2  1  1  1
  2  3  1  0
  3  4  1  0
  4  5  2  0
  5  6  1  0
  6  7  2  0
  7  8  1  0
  8  9  1  0
  9 10  3  0
  8 11  2  0
 11 12  1  0
  2 13  1  0
 13 14  2  0
 13 15  1  0
 11  4  1  0
M  END
>  <rName>  (2394) 
Phe_2Me_3CN

>  <PQ_SYMBOL>  (2394) 
Phe_2Me_3CN

>  <FULL_NAME>  (2394) 
(S)-2-amino-3-(3-cyano-2-methylphenyl)propanoic acid

>  <IUPAC_CONDENSED>  (2394) 
Phe(2-Me,3-CN)

>  <IUPAC>  (2394) 
(2S)-2-amino-3-(2-methyl-3-(nitrilomethyl)phenyl)propanoic acid

>  <TYPE>  (2394) 
Backbone

>  <CLASS>  (2394) 
alpha

>  <ANALOG>  (2394) 
Phe

>  <MOL_WT>  (2394) 
204.22899999999996

>  <LOGP>  (2394) 
0.8211000000000002

>  <TPSA>  (2394) 
87.11

>  <POPULARITY>  (2394) 
2.6

>  <PROTECTED>  (2394) 
TRUE

>  <SMILES>  (2394) 
N[C@@H](Cc1(cccc(C#N)c1C))C(=O)O

>  <INCHIKEY>  (2394) 
XZJZFMBGBINFEQ-JTQLQIEISA-N

$$$$
aMePhe_3F
     RDKit          2D

 14 14  0  0  0  0  0  0  0  0999 V2000
   -0.9250    1.5349    0.0000 N   0  0  0  0  0  0  0  0  0  0  0  0
   -1.9283    0.4198    0.0000 C   0  0  0  0  0  0  0  0  0  0  0  0
   -3.0434    1.4231    0.0000 C   0  0  0  0  0  0  0  0  0  0  0  0
   -0.8132   -0.5834    0.0000 C   0  0  0  0  0  0  0  0  0  0  0  0
    0.6132   -0.1194    0.0000 C   0  0  0  0  0  0  0  0  0  0  0  0
    0.9245    1.3480    0.0000 C   0  0  0  0  0  0  0  0  0  0  0  0
    2.3509    1.8121    0.0000 C   0  0  0  0  0  0  0  0  0  0  0  0
    3.4660    0.8088    0.0000 C   0  0  0  0  0  0  0  0  0  0  0  0
    3.1548   -0.6585    0.0000 C   0  0  0  0  0  0  0  0  0  0  0  0
    4.2699   -1.6618    0.0000 F   0  0  0  0  0  0  0  0  0  0  0  0
    1.7284   -1.1226    0.0000 C   0  0  0  0  0  0  0  0  0  0  0  0
   -2.9315   -0.6953    0.0000 C   0  0  0  0  0  0  0  0  0  0  0  0
   -4.3989   -0.3840    0.0000 O   0  0  0  0  0  0  0  0  0  0  0  0
   -2.4674   -2.1217    0.0000 O   0  0  0  0  0  0  0  0  0  0  0  0
  1  2  1  0
  2  3  1  6
  2  4  1  0
  4  5  1  0
  5  6  2  0
  6  7  1  0
  7  8  2  0
  8  9  1  0
  9 10  1  0
  9 11  2  0
  2 12  1  0
 12 13  2  0
 12 14  1  0
 11  5  1  0
M  END
>  <rName>  (2395) 
aMePhe_3F

>  <PQ_SYMBOL>  (2395) 
aMePhe_3F

>  <FULL_NAME>  (2395) 
(S)-2-amino-3-(3-fluorophenyl)-2-methylpropanoic acid

>  <IUPAC_CONDENSED>  (2395) 
aMePhe(3-F)

>  <IUPAC>  (2395) 
(2S)-2-amino-2-((3-fluorophenyl)methyl)propanoic acid

>  <TYPE>  (2395) 
Backbone

>  <CLASS>  (2395) 
alpha

>  <ANALOG>  (2395) 
Phe

>  <MOL_WT>  (2395) 
197.20899999999997

>  <LOGP>  (2395) 
1.1702

>  <TPSA>  (2395) 
63.32000000000001

>  <POPULARITY>  (2395) 
4.6

>  <PROTECTED>  (2395) 
TRUE

>  <SMILES>  (2395) 
N[C@@](C)(Cc1(cccc(F)c1))C(=O)O

>  <INCHIKEY>  (2395) 
FQZGACCJFXQSCQ-JTQLQIEISA-N

$$$$
Phe_2Me_5CO2H
     RDKit          2D

 16 16  0  0  0  0  0  0  0  0999 V2000
    1.4458   -1.7915    0.0000 N   0  0  0  0  0  0  0  0  0  0  0  0
    2.2696   -0.5380    0.0000 C   0  0  0  0  0  0  0  0  0  0  0  0
    1.5959    0.8022    0.0000 C   0  0  0  0  0  0  0  0  0  0  0  0
    0.0984    0.8889    0.0000 C   0  0  0  0  0  0  0  0  0  0  0  0
   -0.7254   -0.3646    0.0000 C   0  0  0  0  0  0  0  0  0  0  0  0
   -2.2229   -0.2780    0.0000 C   0  0  0  0  0  0  0  0  0  0  0  0
   -2.8966    1.0622    0.0000 C   0  0  0  0  0  0  0  0  0  0  0  0
   -2.0728    2.3158    0.0000 C   0  0  0  0  0  0  0  0  0  0  0  0
   -0.5753    2.2291    0.0000 C   0  0  0  0  0  0  0  0  0  0  0  0
    0.2485    3.4826    0.0000 C   0  0  0  0  0  0  0  0  0  0  0  0
   -3.0467   -1.5315    0.0000 C   0  0  0  0  0  0  0  0  0  0  0  0
   -2.3730   -2.8717    0.0000 O   0  0  0  0  0  0  0  0  0  0  0  0
   -4.5442   -1.4448    0.0000 O   0  0  0  0  0  0  0  0  0  0  0  0
    3.7671   -0.6247    0.0000 C   0  0  0  0  0  0  0  0  0  0  0  0
    4.5909    0.6289    0.0000 O   0  0  0  0  0  0  0  0  0  0  0  0
    4.4408   -1.9649    0.0000 O   0  0  0  0  0  0  0  0  0  0  0  0
  2  1  1  1
  2  3  1  0
  3  4  1  0
  4  5  1  0
  5  6  2  0
  6  7  1  0
  7  8  2  0
  8  9  1  0
  9 10  1  0
  6 11  1  0
 11 12  2  0
 11 13  1  0
  2 14  1  0
 14 15  2  0
 14 16  1  0
  9  4  2  0
M  END
>  <rName>  (2396) 
Phe_2Me_5CO2H

>  <PQ_SYMBOL>  (2396) 
Phe_2Me_5CO2H

>  <FULL_NAME>  (2396) 
(S)-3-(2-amino-2-carboxyethyl)-4-methylbenzoic acid

>  <IUPAC_CONDENSED>  (2396) 
Phe(2-Me,5-CO2H)

>  <IUPAC>  (2396) 
3-((2S)-2-amino-3-hydroxy-3-oxopropyl)-4-methylbenzene-1-carboxylic acid

>  <TYPE>  (2396) 
Backbone

>  <CLASS>  (2396) 
alpha

>  <ANALOG>  (2396) 
Phe

>  <MOL_WT>  (2396) 
223.22799999999995

>  <LOGP>  (2396) 
0.64762

>  <TPSA>  (2396) 
100.62000000000002

>  <POPULARITY>  (2396) 
3.2

>  <PROTECTED>  (2396) 
TRUE

>  <SMILES>  (2396) 
N[C@@H](Cc1(cc(ccc1C)C(=O)O))C(=O)O

>  <INCHIKEY>  (2396) 
LFTWZDOHVWZXDQ-VIFPVBQESA-N

$$$$
Ala_pyrid3yl_4OMe
     RDKit          2D

 14 14  0  0  0  0  0  0  0  0999 V2000
   -1.9781    1.7869    0.0000 N   0  0  0  0  0  0  0  0  0  0  0  0
   -2.0323    0.2879    0.0000 C   0  0  0  0  0  0  0  0  0  0  0  0
   -0.7612   -0.5086    0.0000 C   0  0  0  0  0  0  0  0  0  0  0  0
    0.5641    0.1940    0.0000 C   0  0  0  0  0  0  0  0  0  0  0  0
    0.6183    1.6931    0.0000 C   0  0  0  0  0  0  0  0  0  0  0  0
    1.9435    2.3957    0.0000 N   0  0  0  0  0  0  0  0  0  0  0  0
    3.2146    1.5993    0.0000 C   0  0  0  0  0  0  0  0  0  0  0  0
    3.1605    0.1002    0.0000 C   0  0  0  0  0  0  0  0  0  0  0  0
    1.8352   -0.6024    0.0000 C   0  0  0  0  0  0  0  0  0  0  0  0
    1.7811   -2.1014    0.0000 O   0  0  0  0  0  0  0  0  0  0  0  0
    3.0522   -2.8978    0.0000 C   0  0  0  0  0  0  0  0  0  0  0  0
   -3.3575   -0.4148    0.0000 C   0  0  0  0  0  0  0  0  0  0  0  0
   -3.4117   -1.9138    0.0000 O   0  0  0  0  0  0  0  0  0  0  0  0
   -4.6287    0.3817    0.0000 O   0  0  0  0  0  0  0  0  0  0  0  0
  2  1  1  1
  2  3  1  0
  3  4  1  0
  4  5  1  0
  5  6  2  0
  6  7  1  0
  7  8  2  0
  8  9  1  0
  9 10  1  0
 10 11  1  0
  2 12  1  0
 12 13  2  0
 12 14  1  0
  9  4  2  0
M  END
>  <rName>  (2397) 
Ala_pyrid3yl_4OMe

>  <PQ_SYMBOL>  (2397) 
Ala_pyrid3yl_4OMe

>  <FULL_NAME>  (2397) 
(S)-2-amino-3-(4-methoxypyridin-3-yl)propanoic acid

>  <IUPAC_CONDENSED>  (2397) 
Ala(pyrid-3-yl(4-OMe))

>  <IUPAC>  (2397) 
(2S)-2-amino-3-(4-methoxypyridin-3-yl)propanoic acid

>  <TYPE>  (2397) 
Backbone

>  <CLASS>  (2397) 
alpha

>  <ANALOG>  (2397) 
Phe

>  <MOL_WT>  (2397) 
196.20599999999996

>  <LOGP>  (2397) 
0.044599999999999695

>  <TPSA>  (2397) 
85.44000000000001

>  <POPULARITY>  (2397) 
2.7

>  <PROTECTED>  (2397) 
TRUE

>  <SMILES>  (2397) 
N[C@@H](Cc1(cnccc1OC))C(=O)O

>  <INCHIKEY>  (2397) 
SAAHEFJIUZRTJT-ZETCQYMHSA-N

$$$$
Phe_2OMe_3F
     RDKit          2D

 15 15  0  0  0  0  0  0  0  0999 V2000
   -2.3383    1.7500    0.0000 N   0  0  0  0  0  0  0  0  0  0  0  0
   -2.3383    0.2500    0.0000 C   0  0  0  0  0  0  0  0  0  0  0  0
   -1.0392   -0.5000    0.0000 C   0  0  0  0  0  0  0  0  0  0  0  0
    0.2598    0.2500    0.0000 C   0  0  0  0  0  0  0  0  0  0  0  0
    0.2598    1.7500    0.0000 C   0  0  0  0  0  0  0  0  0  0  0  0
    1.5588    2.5000    0.0000 C   0  0  0  0  0  0  0  0  0  0  0  0
    2.8579    1.7500    0.0000 C   0  0  0  0  0  0  0  0  0  0  0  0
    2.8579    0.2500    0.0000 C   0  0  0  0  0  0  0  0  0  0  0  0
    4.1569   -0.5000    0.0000 F   0  0  0  0  0  0  0  0  0  0  0  0
    1.5588   -0.5000    0.0000 C   0  0  0  0  0  0  0  0  0  0  0  0
    1.5588   -2.0000    0.0000 O   0  0  0  0  0  0  0  0  0  0  0  0
    2.8579   -2.7500    0.0000 C   0  0  0  0  0  0  0  0  0  0  0  0
   -3.6373   -0.5000    0.0000 C   0  0  0  0  0  0  0  0  0  0  0  0
   -3.6373   -2.0000    0.0000 O   0  0  0  0  0  0  0  0  0  0  0  0
   -4.9363    0.2500    0.0000 O   0  0  0  0  0  0  0  0  0  0  0  0
  2  1  1  1
  2  3  1  0
  3  4  1  0
  4  5  2  0
  5  6  1  0
  6  7  2  0
  7  8  1  0
  8  9  1  0
  8 10  2  0
 10 11  1  0
 11 12  1  0
  2 13  1  0
 13 14  2  0
 13 15  1  0
 10  4  1  0
M  END
>  <rName>  (2398) 
Phe_2OMe_3F

>  <PQ_SYMBOL>  (2398) 
Phe_2OMe_3F

>  <FULL_NAME>  (2398) 
(S)-2-amino-3-(3-fluoro-2-methoxyphenyl)propanoic acid

>  <IUPAC_CONDENSED>  (2398) 
Phe(2-OMe,3-F)

>  <IUPAC>  (2398) 
(2S)-2-amino-3-(3-fluoro-2-methoxyphenyl)propanoic acid

>  <TYPE>  (2398) 
Backbone

>  <CLASS>  (2398) 
alpha

>  <ANALOG>  (2398) 
Tyr

>  <MOL_WT>  (2398) 
213.20799999999997

>  <LOGP>  (2398) 
0.7887000000000002

>  <TPSA>  (2398) 
72.55

>  <POPULARITY>  (2398) 
3.1

>  <PROTECTED>  (2398) 
TRUE

>  <SMILES>  (2398) 
N[C@@H](Cc1(cccc(F)c1OC))C(=O)O

>  <INCHIKEY>  (2398) 
DZDIMQMNUOMEAX-QMMMGPOBSA-N

$$$$
Phe_2CO2H_4NO2
     RDKit          2D

 18 18  0  0  0  0  0  0  0  0999 V2000
   -2.2817    2.2658    0.0000 N   0  0  0  0  0  0  0  0  0  0  0  0
   -2.7617    0.8447    0.0000 C   0  0  0  0  0  0  0  0  0  0  0  0
   -1.7709   -0.2815    0.0000 C   0  0  0  0  0  0  0  0  0  0  0  0
   -0.3002    0.0134    0.0000 C   0  0  0  0  0  0  0  0  0  0  0  0
    0.1798    1.4346    0.0000 C   0  0  0  0  0  0  0  0  0  0  0  0
    1.6505    1.7295    0.0000 C   0  0  0  0  0  0  0  0  0  0  0  0
    2.6413    0.6033    0.0000 C   0  0  0  0  0  0  0  0  0  0  0  0
    2.1613   -0.8179    0.0000 C   0  0  0  0  0  0  0  0  0  0  0  0
    0.6906   -1.1128    0.0000 C   0  0  0  0  0  0  0  0  0  0  0  0
    0.2107   -2.5339    0.0000 C   0  0  0  0  0  0  0  0  0  0  0  0
   -1.2601   -2.8289    0.0000 O   0  0  0  0  0  0  0  0  0  0  0  0
    1.2014   -3.6602    0.0000 O   0  0  0  0  0  0  0  0  0  0  0  0
    4.1120    0.8982    0.0000 N   0  0  0  0  0  0  0  0  0  0  0  0
    4.5919    2.3193    0.0000 O   0  0  0  0  0  0  0  0  0  0  0  0
    5.1028   -0.2280    0.0000 O   0  0  0  0  0  0  0  0  0  0  0  0
   -4.2324    0.5498    0.0000 C   0  0  0  0  0  0  0  0  0  0  0  0
   -4.7123   -0.8714    0.0000 O   0  0  0  0  0  0  0  0  0  0  0  0
   -5.2232    1.6760    0.0000 O   0  0  0  0  0  0  0  0  0  0  0  0
  2  1  1  1
  2  3  1  0
  3  4  1  0
  4  5  1  0
  5  6  2  0
  6  7  1  0
  7  8  2  0
  8  9  1  0
  9 10  1  0
 10 11  2  0
 10 12  1  0
  7 13  1  0
 13 14  2  0
 13 15  1  0
  2 16  1  0
 16 17  2  0
 16 18  1  0
  9  4  2  0
M  CHG  2  13   1  15  -1
M  END
>  <rName>  (2399) 
Phe_2CO2H_4NO2

>  <PQ_SYMBOL>  (2399) 
Phe_2CO2H_4NO2

>  <FULL_NAME>  (2399) 
(S)-2-(2-amino-2-carboxyethyl)-5-nitrobenzoic acid

>  <IUPAC_CONDENSED>  (2399) 
Phe(2-CO2H,4-NO2)

>  <IUPAC>  (2399) 
2-((2S)-2-amino-3-hydroxy-3-oxopropyl)-5-nitrobenzene-1-carboxylic acid

>  <TYPE>  (2399) 
Backbone

>  <CLASS>  (2399) 
alpha

>  <ANALOG>  (2399) 
Phe

>  <MOL_WT>  (2399) 
254.19799999999995

>  <LOGP>  (2399) 
0.24739999999999973

>  <TPSA>  (2399) 
143.76

>  <POPULARITY>  (2399) 
2.5

>  <PROTECTED>  (2399) 
TRUE

>  <SMILES>  (2399) 
N[C@@H](Cc1(ccc(cc1C(=O)O)[N+](=O)[O-]))C(=O)O

>  <INCHIKEY>  (2399) 
BPMVYPRELOSRAS-QMMMGPOBSA-N

$$$$
D-aBn4-IPro
     RDKit          2D

 16 17  0  0  0  0  0  0  0  0999 V2000
   -2.9757   -0.8685    0.0000 N   0  0  0  0  0  0  0  0  0  0  0  0
   -1.7221   -0.0447    0.0000 C   0  0  0  0  0  0  0  0  0  0  0  0
   -0.5513   -0.9823    0.0000 C   0  0  0  0  0  0  0  0  0  0  0  0
   -1.0813   -2.3856    0.0000 C   0  0  0  0  0  0  0  0  0  0  0  0
   -2.5796   -2.3152    0.0000 C   0  0  0  0  0  0  0  0  0  0  0  0
   -0.6673    1.0217    0.0000 C   0  0  0  0  0  0  0  0  0  0  0  0
    0.7837    0.6414    0.0000 C   0  0  0  0  0  0  0  0  0  0  0  0
    1.8386    1.7078    0.0000 C   0  0  0  0  0  0  0  0  0  0  0  0
    3.2896    1.3274    0.0000 C   0  0  0  0  0  0  0  0  0  0  0  0
    3.6857   -0.1194    0.0000 C   0  0  0  0  0  0  0  0  0  0  0  0
    5.1366   -0.4997    0.0000 I   0  0  0  0  0  0  0  0  0  0  0  0
    2.6308   -1.1858    0.0000 C   0  0  0  0  0  0  0  0  0  0  0  0
    1.1798   -0.8054    0.0000 C   0  0  0  0  0  0  0  0  0  0  0  0
   -2.6724    1.1159    0.0000 C   0  0  0  0  0  0  0  0  0  0  0  0
   -2.1425    2.5192    0.0000 O   0  0  0  0  0  0  0  0  0  0  0  0
   -4.1527    0.8732    0.0000 O   0  0  0  0  0  0  0  0  0  0  0  0
  1  2  1  0
  2  3  1  0
  3  4  1  0
  4  5  1  0
  2  6  1  1
  6  7  1  0
  7  8  1  0
  8  9  2  0
  9 10  1  0
 10 11  1  0
 10 12  2  0
 12 13  1  0
  2 14  1  0
 14 15  2  0
 14 16  1  0
  5  1  1  0
 13  7  2  0
M  END
>  <rName>  (2400) 
D-aBn4-IPro

>  <PQ_SYMBOL>  (2400) 
D-aBn4-IPro

>  <FULL_NAME>  (2400) 
(2R)-2-[(4-iodophenyl)methyl]pyrrolidine-2-carboxylic acid

>  <IUPAC_CONDENSED>  (2400) 
D-aBn(4-I)Pro

>  <IUPAC>  (2400) 
(2R)-2-((4-iodophenyl)methyl)pyrrolidine-2-carboxylic acid

>  <TYPE>  (2400) 
Backbone

>  <CLASS>  (2400) 
alpha

>  <ANALOG>  (2400) 
Pro

>  <MOL_WT>  (2400) 
331.153

>  <LOGP>  (2400) 
2.0405

>  <TPSA>  (2400) 
49.33

>  <POPULARITY>  (2400) 
2.6

>  <PROTECTED>  (2400) 
TRUE

>  <SMILES>  (2400) 
N1[C@](CCC1)(Cc2(ccc(I)cc2))C(=O)O

>  <INCHIKEY>  (2400) 
CLNWOXRWDCFVOR-GFCCVEGCSA-N

$$$$
D-Gly_bicyclo111pentylmethyl
     RDKit          2D

 11 12  0  0  0  0  0  0  0  0999 V2000
   -0.8386    1.6923    0.0000 N   0  0  0  0  0  0  0  0  0  0  0  0
   -1.2062    0.2380    0.0000 C   0  0  0  0  0  0  0  0  0  0  0  0
   -0.1307   -0.8075    0.0000 C   0  0  0  0  0  0  0  0  0  0  0  0
    1.3126   -0.3988    0.0000 C   0  0  0  0  0  0  0  0  0  0  0  0
    2.6221   -1.1304    0.0000 C   0  0  0  0  0  0  0  0  0  0  0  0
    3.3536    0.1791    0.0000 C   0  0  0  0  0  0  0  0  0  0  0  0
    2.0441    0.9107    0.0000 C   0  0  0  0  0  0  0  0  0  0  0  0
    2.2348    0.2372    0.0000 C   0  0  0  0  0  0  0  0  0  0  0  0
   -2.6495   -0.1706    0.0000 C   0  0  0  0  0  0  0  0  0  0  0  0
   -3.0172   -1.6249    0.0000 O   0  0  0  0  0  0  0  0  0  0  0  0
   -3.7251    0.8749    0.0000 O   0  0  0  0  0  0  0  0  0  0  0  0
  2  1  1  6
  2  3  1  0
  3  4  1  0
  4  5  1  0
  5  6  1  0
  6  7  1  0
  6  8  1  0
  2  9  1  0
  9 10  2  0
  9 11  1  0
  7  4  1  0
  8  4  1  0
M  END
>  <rName>  (2401) 
D-Gly_bicyclo111pentylmethyl

>  <PQ_SYMBOL>  (2401) 
D-Gly_bicyclo111pentylmethyl

>  <FULL_NAME>  (2401) 
(R)-2-amino-3-(bicyclo[1.1.1]pentan-1-yl)propanoic acid

>  <IUPAC_CONDENSED>  (2401) 
D-Gly(bicyclo[1.1.1]pentylmethyl)

>  <IUPAC>  (2401) 
(2R)-2-amino-3-(bicyclo[1.1.1]pentan-1-yl)propanoic acid

>  <TYPE>  (2401) 
Backbone

>  <CLASS>  (2401) 
alpha

>  <ANALOG>  (2401) 
Ala

>  <MOL_WT>  (2401) 
155.197

>  <LOGP>  (2401) 
0.5884999999999998

>  <TPSA>  (2401) 
63.32000000000001

>  <POPULARITY>  (2401) 
5.2

>  <PROTECTED>  (2401) 
TRUE

>  <SMILES>  (2401) 
N[C@H](CC12(CC(C1)C2))C(=O)O

>  <INCHIKEY>  (2401) 
IENPWSBMRBJIBM-NAJVVJGSSA-N

$$$$
Phe_2NO2_4CN
     RDKit          2D

 17 17  0  0  0  0  0  0  0  0999 V2000
   -2.1084    2.2565    0.0000 N   0  0  0  0  0  0  0  0  0  0  0  0
   -2.5455    0.8216    0.0000 C   0  0  0  0  0  0  0  0  0  0  0  0
   -1.5215   -0.2744    0.0000 C   0  0  0  0  0  0  0  0  0  0  0  0
   -0.0602    0.0645    0.0000 C   0  0  0  0  0  0  0  0  0  0  0  0
    0.3769    1.4994    0.0000 C   0  0  0  0  0  0  0  0  0  0  0  0
    1.8381    1.8382    0.0000 C   0  0  0  0  0  0  0  0  0  0  0  0
    2.8622    0.7422    0.0000 C   0  0  0  0  0  0  0  0  0  0  0  0
    4.3234    1.0811    0.0000 C   0  0  0  0  0  0  0  0  0  0  0  0
    5.7846    1.4200    0.0000 N   0  0  0  0  0  0  0  0  0  0  0  0
    2.4251   -0.6927    0.0000 C   0  0  0  0  0  0  0  0  0  0  0  0
    0.9639   -1.0315    0.0000 C   0  0  0  0  0  0  0  0  0  0  0  0
    0.5267   -2.4664    0.0000 N   0  0  0  0  0  0  0  0  0  0  0  0
   -0.9345   -2.8053    0.0000 O   0  0  0  0  0  0  0  0  0  0  0  0
    1.5508   -3.5624    0.0000 O   0  0  0  0  0  0  0  0  0  0  0  0
   -4.0068    0.4827    0.0000 C   0  0  0  0  0  0  0  0  0  0  0  0
   -4.4439   -0.9522    0.0000 O   0  0  0  0  0  0  0  0  0  0  0  0
   -5.0309    1.5787    0.0000 O   0  0  0  0  0  0  0  0  0  0  0  0
  2  1  1  1
  2  3  1  0
  3  4  1  0
  4  5  1  0
  5  6  2  0
  6  7  1  0
  7  8  1  0
  8  9  3  0
  7 10  2  0
 10 11  1  0
 11 12  1  0
 12 13  2  0
 12 14  1  0
  2 15  1  0
 15 16  2  0
 15 17  1  0
 11  4  2  0
M  CHG  2  12   1  14  -1
M  END
>  <rName>  (2402) 
Phe_2NO2_4CN

>  <PQ_SYMBOL>  (2402) 
Phe_2NO2_4CN

>  <FULL_NAME>  (2402) 
(S)-2-amino-3-(4-cyano-2-nitrophenyl)propanoic acid

>  <IUPAC_CONDENSED>  (2402) 
Phe(2-NO2,4-CN)

>  <IUPAC>  (2402) 
(2S)-2-amino-3-(4-(nitrilomethyl)-2-nitrophenyl)propanoic acid

>  <TYPE>  (2402) 
Backbone

>  <CLASS>  (2402) 
alpha

>  <ANALOG>  (2402) 
Phe

>  <MOL_WT>  (2402) 
235.19899999999998

>  <LOGP>  (2402) 
0.42087999999999987

>  <TPSA>  (2402) 
130.25

>  <POPULARITY>  (2402) 
2.6

>  <PROTECTED>  (2402) 
TRUE

>  <SMILES>  (2402) 
N[C@@H](Cc1(ccc(C#N)cc1[N+](=O)[O-]))C(=O)O

>  <INCHIKEY>  (2402) 
PWAANDSNQHWUET-QMMMGPOBSA-N

$$$$
Phe_43carboxypropyl
     RDKit          2D

 18 18  0  0  0  0  0  0  0  0999 V2000
   -3.9599    1.5919    0.0000 N   0  0  0  0  0  0  0  0  0  0  0  0
   -4.2369    0.1177    0.0000 C   0  0  0  0  0  0  0  0  0  0  0  0
   -3.0987   -0.8593    0.0000 C   0  0  0  0  0  0  0  0  0  0  0  0
   -1.6835   -0.3620    0.0000 C   0  0  0  0  0  0  0  0  0  0  0  0
   -1.4065    1.1122    0.0000 C   0  0  0  0  0  0  0  0  0  0  0  0
    0.0087    1.6094    0.0000 C   0  0  0  0  0  0  0  0  0  0  0  0
    1.1469    0.6324    0.0000 C   0  0  0  0  0  0  0  0  0  0  0  0
    0.8699   -0.8418    0.0000 C   0  0  0  0  0  0  0  0  0  0  0  0
   -0.5453   -1.3390    0.0000 C   0  0  0  0  0  0  0  0  0  0  0  0
    2.5621    1.1297    0.0000 C   0  0  0  0  0  0  0  0  0  0  0  0
    3.7003    0.1527    0.0000 C   0  0  0  0  0  0  0  0  0  0  0  0
    5.1155    0.6499    0.0000 C   0  0  0  0  0  0  0  0  0  0  0  0
    6.2537   -0.3270    0.0000 C   0  0  0  0  0  0  0  0  0  0  0  0
    5.9767   -1.8012    0.0000 O   0  0  0  0  0  0  0  0  0  0  0  0
    7.6689    0.1702    0.0000 O   0  0  0  0  0  0  0  0  0  0  0  0
   -5.6521   -0.3795    0.0000 C   0  0  0  0  0  0  0  0  0  0  0  0
   -5.9291   -1.8537    0.0000 O   0  0  0  0  0  0  0  0  0  0  0  0
   -6.7903    0.5974    0.0000 O   0  0  0  0  0  0  0  0  0  0  0  0
  2  1  1  1
  2  3  1  0
  3  4  1  0
  4  5  1  0
  5  6  2  0
  6  7  1  0
  7  8  2  0
  8  9  1  0
  7 10  1  0
 10 11  1  0
 11 12  1  0
 12 13  1  0
 13 14  2  0
 13 15  1  0
  2 16  1  0
 16 17  2  0
 16 18  1  0
  9  4  2  0
M  END
>  <rName>  (2403) 
Phe_43carboxypropyl

>  <PQ_SYMBOL>  (2403) 
Phe_43carboxypropyl

>  <FULL_NAME>  (2403) 
(S)-4-(4-(2-amino-2-carboxyethyl)phenyl)butanoic acid

>  <IUPAC_CONDENSED>  (2403) 
Phe(4-3-carboxypropyl)

>  <IUPAC>  (2403) 
4-(4-((2S)-2-amino-3-hydroxy-3-oxopropyl)phenyl)butanoic acid

>  <TYPE>  (2403) 
Backbone

>  <CLASS>  (2403) 
alpha

>  <ANALOG>  (2403) 
Phe

>  <MOL_WT>  (2403) 
251.28199999999993

>  <LOGP>  (2403) 
1.0483

>  <TPSA>  (2403) 
100.62000000000002

>  <POPULARITY>  (2403) 
3

>  <PROTECTED>  (2403) 
TRUE

>  <SMILES>  (2403) 
N[C@@H](Cc1(ccc(cc1)CCCC(=O)O))C(=O)O

>  <INCHIKEY>  (2403) 
ALLMRQJXVYBYNT-NSHDSACASA-N

$$$$
Phe_2CO2H_4Cl
     RDKit          2D

 16 16  0  0  0  0  0  0  0  0999 V2000
   -2.0264    2.1084    0.0000 N   0  0  0  0  0  0  0  0  0  0  0  0
   -2.2807    0.6301    0.0000 C   0  0  0  0  0  0  0  0  0  0  0  0
   -1.1276   -0.3292    0.0000 C   0  0  0  0  0  0  0  0  0  0  0  0
    0.2798    0.1897    0.0000 C   0  0  0  0  0  0  0  0  0  0  0  0
    0.5340    1.6680    0.0000 C   0  0  0  0  0  0  0  0  0  0  0  0
    1.9414    2.1869    0.0000 C   0  0  0  0  0  0  0  0  0  0  0  0
    3.0945    1.2276    0.0000 C   0  0  0  0  0  0  0  0  0  0  0  0
    4.5019    1.7465    0.0000 Cl  0  0  0  0  0  0  0  0  0  0  0  0
    2.8403   -0.2507    0.0000 C   0  0  0  0  0  0  0  0  0  0  0  0
    1.4329   -0.7697    0.0000 C   0  0  0  0  0  0  0  0  0  0  0  0
    1.1786   -2.2479    0.0000 C   0  0  0  0  0  0  0  0  0  0  0  0
   -0.2288   -2.7669    0.0000 O   0  0  0  0  0  0  0  0  0  0  0  0
    2.3317   -3.2073    0.0000 O   0  0  0  0  0  0  0  0  0  0  0  0
   -3.6881    0.1112    0.0000 C   0  0  0  0  0  0  0  0  0  0  0  0
   -3.9423   -1.3671    0.0000 O   0  0  0  0  0  0  0  0  0  0  0  0
   -4.8412    1.0705    0.0000 O   0  0  0  0  0  0  0  0  0  0  0  0
  2  1  1  1
  2  3  1  0
  3  4  1  0
  4  5  1  0
  5  6  2  0
  6  7  1  0
  7  8  1  0
  7  9  2  0
  9 10  1  0
 10 11  1  0
 11 12  2  0
 11 13  1  0
  2 14  1  0
 14 15  2  0
 14 16  1  0
 10  4  2  0
M  END
>  <rName>  (2404) 
Phe_2CO2H_4Cl

>  <PQ_SYMBOL>  (2404) 
Phe_2CO2H_4Cl

>  <FULL_NAME>  (2404) 
(S)-2-(2-amino-2-carboxyethyl)-5-chlorobenzoic acid

>  <IUPAC_CONDENSED>  (2404) 
Phe(2-CO2H,4-Cl)

>  <IUPAC>  (2404) 
2-((2S)-2-amino-3-hydroxy-3-oxopropyl)-5-chlorobenzene-1-carboxylic acid

>  <TYPE>  (2404) 
Backbone

>  <CLASS>  (2404) 
alpha

>  <ANALOG>  (2404) 
Phe

>  <MOL_WT>  (2404) 
243.646

>  <LOGP>  (2404) 
0.9926000000000001

>  <TPSA>  (2404) 
100.62000000000002

>  <POPULARITY>  (2404) 
2.5

>  <PROTECTED>  (2404) 
TRUE

>  <SMILES>  (2404) 
N[C@@H](Cc1(ccc(Cl)cc1C(=O)O))C(=O)O

>  <INCHIKEY>  (2404) 
BDZCDSOBQSKUNP-QMMMGPOBSA-N

$$$$
Phe_2OH_5Ph_4CN
     RDKit          2D

 21 22  0  0  0  0  0  0  0  0999 V2000
    1.8623   -2.0042    0.0000 N   0  0  0  0  0  0  0  0  0  0  0  0
    3.2257   -1.3788    0.0000 C   0  0  0  0  0  0  0  0  0  0  0  0
    3.3658    0.1147    0.0000 C   0  0  0  0  0  0  0  0  0  0  0  0
    2.1425    0.9827    0.0000 C   0  0  0  0  0  0  0  0  0  0  0  0
    0.7791    0.3574    0.0000 C   0  0  0  0  0  0  0  0  0  0  0  0
   -0.4442    1.2254    0.0000 C   0  0  0  0  0  0  0  0  0  0  0  0
   -0.3041    2.7189    0.0000 C   0  0  0  0  0  0  0  0  0  0  0  0
    1.0593    3.3442    0.0000 C   0  0  0  0  0  0  0  0  0  0  0  0
    2.2826    2.4762    0.0000 C   0  0  0  0  0  0  0  0  0  0  0  0
    3.6460    3.1015    0.0000 O   0  0  0  0  0  0  0  0  0  0  0  0
   -1.8076    0.6000    0.0000 C   0  0  0  0  0  0  0  0  0  0  0  0
   -3.0309    1.4681    0.0000 C   0  0  0  0  0  0  0  0  0  0  0  0
   -4.3943    0.8427    0.0000 C   0  0  0  0  0  0  0  0  0  0  0  0
   -4.5345   -0.6507    0.0000 C   0  0  0  0  0  0  0  0  0  0  0  0
   -5.8979   -1.2761    0.0000 C   0  0  0  0  0  0  0  0  0  0  0  0
   -7.2613   -1.9015    0.0000 N   0  0  0  0  0  0  0  0  0  0  0  0
   -3.3112   -1.5188    0.0000 C   0  0  0  0  0  0  0  0  0  0  0  0
   -1.9477   -0.8934    0.0000 C   0  0  0  0  0  0  0  0  0  0  0  0
    4.4490   -2.2468    0.0000 C   0  0  0  0  0  0  0  0  0  0  0  0
    5.8124   -1.6215    0.0000 O   0  0  0  0  0  0  0  0  0  0  0  0
    4.3089   -3.7403    0.0000 O   0  0  0  0  0  0  0  0  0  0  0  0
  2  1  1  1
  2  3  1  0
  3  4  1  0
  4  5  1  0
  5  6  2  0
  6  7  1  0
  7  8  2  0
  8  9  1  0
  9 10  1  0
  6 11  1  0
 11 12  1  0
 12 13  2  0
 13 14  1  0
 14 15  1  0
 15 16  3  0
 14 17  2  0
 17 18  1  0
  2 19  1  0
 19 20  2  0
 19 21  1  0
  9  4  2  0
 18 11  2  0
M  END
>  <rName>  (2405) 
Phe_2OH_5Ph_4CN

>  <PQ_SYMBOL>  (2405) 
Phe_2OH_5Ph_4CN

>  <FULL_NAME>  (2405) 
(S)-2-amino-3-(4'-cyano-4-hydroxy-[1,1'-biphenyl]-3-yl)propanoic acid

>  <IUPAC_CONDENSED>  (2405) 
Phe(2-OH,5-Ph(4-CN))

>  <IUPAC>  (2405) 
(2S)-2-amino-3-(2-hydroxy-5-(4-(nitrilomethyl)phenyl)phenyl)propanoic acid

>  <TYPE>  (2405) 
Backbone

>  <CLASS>  (2405) 
alpha

>  <ANALOG>  (2405) 
Tyr

>  <MOL_WT>  (2405) 
282.299

>  <LOGP>  (2405) 
1.88528

>  <TPSA>  (2405) 
107.33999999999999

>  <POPULARITY>  (2405) 
2.2

>  <PROTECTED>  (2405) 
TRUE

>  <SMILES>  (2405) 
N[C@@H](Cc1(cc(ccc1O)c2(ccc(C#N)cc2)))C(=O)O

>  <INCHIKEY>  (2405) 
WZHRBHKUVWJWDF-AWEZNQCLSA-N

$$$$
Phe_2F_4CF3
     RDKit          2D

 17 17  0  0  0  0  0  0  0  0999 V2000
   -2.4937    1.8764    0.0000 N   0  0  0  0  0  0  0  0  0  0  0  0
   -2.9991    0.4641    0.0000 C   0  0  0  0  0  0  0  0  0  0  0  0
   -2.0288   -0.6797    0.0000 C   0  0  0  0  0  0  0  0  0  0  0  0
   -0.5530   -0.4113    0.0000 C   0  0  0  0  0  0  0  0  0  0  0  0
   -0.0476    1.0010    0.0000 C   0  0  0  0  0  0  0  0  0  0  0  0
    1.4282    1.2695    0.0000 C   0  0  0  0  0  0  0  0  0  0  0  0
    2.3986    0.1256    0.0000 C   0  0  0  0  0  0  0  0  0  0  0  0
    1.8932   -1.2867    0.0000 C   0  0  0  0  0  0  0  0  0  0  0  0
    0.4174   -1.5551    0.0000 C   0  0  0  0  0  0  0  0  0  0  0  0
   -0.0880   -2.9674    0.0000 F   0  0  0  0  0  0  0  0  0  0  0  0
    3.8744    0.3941    0.0000 C   0  0  0  0  0  0  0  0  0  0  0  0
    5.3502    0.6625    0.0000 F   0  0  0  0  0  0  0  0  0  0  0  0
    4.1428   -1.0817    0.0000 F   0  0  0  0  0  0  0  0  0  0  0  0
    3.6059    1.8699    0.0000 F   0  0  0  0  0  0  0  0  0  0  0  0
   -4.4749    0.1957    0.0000 C   0  0  0  0  0  0  0  0  0  0  0  0
   -4.9803   -1.2166    0.0000 O   0  0  0  0  0  0  0  0  0  0  0  0
   -5.4453    1.3395    0.0000 O   0  0  0  0  0  0  0  0  0  0  0  0
  2  1  1  1
  2  3  1  0
  3  4  1  0
  4  5  1  0
  5  6  2  0
  6  7  1  0
  7  8  2  0
  8  9  1  0
  9 10  1  0
  7 11  1  0
 11 12  1  0
 11 13  1  0
 11 14  1  0
  2 15  1  0
 15 16  2  0
 15 17  1  0
  9  4  2  0
M  END
>  <rName>  (2406) 
Phe_2F_4CF3

>  <PQ_SYMBOL>  (2406) 
Phe_2F_4CF3

>  <FULL_NAME>  (2406) 
(S)-2-amino-3-(2-fluoro-4-(trifluoromethyl)phenyl)propanoic acid

>  <IUPAC_CONDENSED>  (2406) 
Phe(2-F,4-CF3)

>  <IUPAC>  (2406) 
(2S)-2-amino-3-(2-fluoro-4-(trifluoromethyl)phenyl)propanoic acid

>  <TYPE>  (2406) 
Backbone

>  <CLASS>  (2406) 
alpha

>  <ANALOG>  (2406) 
Phe

>  <MOL_WT>  (2406) 
251.17899999999992

>  <LOGP>  (2406) 
1.7989000000000002

>  <TPSA>  (2406) 
63.32000000000001

>  <POPULARITY>  (2406) 
3.7

>  <PROTECTED>  (2406) 
TRUE

>  <SMILES>  (2406) 
N[C@@H](Cc1(ccc(cc1F)C(F)(F)F))C(=O)O

>  <INCHIKEY>  (2406) 
OMTZLRBOGCVOEM-QMMMGPOBSA-N

$$$$
3Thi_CO2H
     RDKit          2D

 14 14  0  0  0  0  0  0  0  0999 V2000
    2.1437    1.8086    0.0000 N   0  0  0  0  0  0  0  0  0  0  0  0
    2.0173    0.3140    0.0000 C   0  0  0  0  0  0  0  0  0  0  0  0
    0.6597   -0.3239    0.0000 C   0  0  0  0  0  0  0  0  0  0  0  0
   -0.5716    0.5329    0.0000 C   0  0  0  0  0  0  0  0  0  0  0  0
   -0.6021    2.0325    0.0000 C   0  0  0  0  0  0  0  0  0  0  0  0
   -2.0378    2.4669    0.0000 C   0  0  0  0  0  0  0  0  0  0  0  0
   -2.8946    1.2357    0.0000 S   0  0  0  0  0  0  0  0  0  0  0  0
   -1.9884    0.0404    0.0000 C   0  0  0  0  0  0  0  0  0  0  0  0
   -2.4228   -1.3954    0.0000 C   0  0  0  0  0  0  0  0  0  0  0  0
   -3.8834   -1.7370    0.0000 O   0  0  0  0  0  0  0  0  0  0  0  0
   -1.3966   -2.4894    0.0000 O   0  0  0  0  0  0  0  0  0  0  0  0
    3.2485   -0.5428    0.0000 C   0  0  0  0  0  0  0  0  0  0  0  0
    3.1221   -2.0375    0.0000 O   0  0  0  0  0  0  0  0  0  0  0  0
    4.6061    0.0951    0.0000 O   0  0  0  0  0  0  0  0  0  0  0  0
  2  1  1  6
  2  3  1  0
  3  4  1  0
  4  5  1  0
  5  6  2  0
  6  7  1  0
  7  8  1  0
  8  9  1  0
  9 10  2  0
  9 11  1  0
  2 12  1  0
 12 13  2  0
 12 14  1  0
  8  4  2  0
M  END
>  <rName>  (2407) 
3Thi_CO2H

>  <PQ_SYMBOL>  (2407) 
3Thi_CO2H

>  <FULL_NAME>  (2407) 
(S)-3-(2-amino-2-carboxyethyl)thiophene-2-carboxylic acid

>  <IUPAC_CONDENSED>  (2407) 
3Thi(CO2H)

>  <IUPAC>  (2407) 
3-((2S)-2-amino-3-hydroxy-3-oxopropyl)thiophene-2-carboxylic acid

>  <TYPE>  (2407) 
Backbone

>  <CLASS>  (2407) 
alpha

>  <ANALOG>  (2407) 
Phe

>  <MOL_WT>  (2407) 
215.22999999999996

>  <LOGP>  (2407) 
0.40070000000000017

>  <TPSA>  (2407) 
100.62000000000002

>  <POPULARITY>  (2407) 
2.5

>  <PROTECTED>  (2407) 
TRUE

>  <SMILES>  (2407) 
N[C@@H](Cc1(ccsc1C(=O)O))C(=O)O

>  <INCHIKEY>  (2407) 
SWSIMWAQWSITJW-YFKPBYRVSA-N

$$$$
4Pal_2F_5Cl
     RDKit          2D

 14 14  0  0  0  0  0  0  0  0999 V2000
   -1.4552    1.7882    0.0000 N   0  0  0  0  0  0  0  0  0  0  0  0
   -1.9325    0.3661    0.0000 C   0  0  0  0  0  0  0  0  0  0  0  0
   -0.9397   -0.7583    0.0000 C   0  0  0  0  0  0  0  0  0  0  0  0
    0.5305   -0.4606    0.0000 C   0  0  0  0  0  0  0  0  0  0  0  0
    1.0078    0.9614    0.0000 C   0  0  0  0  0  0  0  0  0  0  0  0
    2.4780    1.2591    0.0000 C   0  0  0  0  0  0  0  0  0  0  0  0
    2.9553    2.6811    0.0000 F   0  0  0  0  0  0  0  0  0  0  0  0
    3.4709    0.1347    0.0000 N   0  0  0  0  0  0  0  0  0  0  0  0
    2.9935   -1.2874    0.0000 C   0  0  0  0  0  0  0  0  0  0  0  0
    1.5234   -1.5850    0.0000 C   0  0  0  0  0  0  0  0  0  0  0  0
    1.0461   -3.0070    0.0000 Cl  0  0  0  0  0  0  0  0  0  0  0  0
   -3.4027    0.0685    0.0000 C   0  0  0  0  0  0  0  0  0  0  0  0
   -3.8800   -1.3536    0.0000 O   0  0  0  0  0  0  0  0  0  0  0  0
   -4.3955    1.1929    0.0000 O   0  0  0  0  0  0  0  0  0  0  0  0
  2  1  1  1
  2  3  1  0
  3  4  1  0
  4  5  1  0
  5  6  2  0
  6  7  1  0
  6  8  1  0
  8  9  2  0
  9 10  1  0
 10 11  1  0
  2 12  1  0
 12 13  2  0
 12 14  1  0
 10  4  2  0
M  END
>  <rName>  (2408) 
4Pal_2F_5Cl

>  <PQ_SYMBOL>  (2408) 
4Pal_2F_5Cl

>  <FULL_NAME>  (2408) 
(S)-2-amino-3-(5-chloro-2-fluoropyridin-4-yl)propanoic acid

>  <IUPAC_CONDENSED>  (2408) 
4Pal(2-F,5-Cl)

>  <IUPAC>  (2408) 
(2S)-2-amino-3-(5-chloro-2-fluoropyridin-4-yl)propanoic acid

>  <TYPE>  (2408) 
Backbone

>  <CLASS>  (2408) 
alpha

>  <ANALOG>  (2408) 
Phe

>  <MOL_WT>  (2408) 
218.61499999999998

>  <LOGP>  (2408) 
0.8285

>  <TPSA>  (2408) 
76.21

>  <POPULARITY>  (2408) 
2.2

>  <PROTECTED>  (2408) 
TRUE

>  <SMILES>  (2408) 
N[C@@H](Cc1(cc(F)ncc1Cl))C(=O)O

>  <INCHIKEY>  (2408) 
ZPEBPGXRYWQMSN-LURJTMIESA-N

$$$$
D-Lys_pent4ynoyl
     RDKit          2D

 16 15  0  0  0  0  0  0  0  0999 V2000
    8.3748   -1.0810    0.0000 C   0  0  0  0  0  0  0  0  0  0  0  0
    7.0677   -0.3451    0.0000 C   0  0  0  0  0  0  0  0  0  0  0  0
    5.7606    0.3907    0.0000 C   0  0  0  0  0  0  0  0  0  0  0  0
    4.4698   -0.3734    0.0000 C   0  0  0  0  0  0  0  0  0  0  0  0
    3.1627    0.3625    0.0000 C   0  0  0  0  0  0  0  0  0  0  0  0
    3.1464    1.8624    0.0000 O   0  0  0  0  0  0  0  0  0  0  0  0
    1.8718   -0.4016    0.0000 N   0  0  0  0  0  0  0  0  0  0  0  0
    0.5647    0.3343    0.0000 C   0  0  0  0  0  0  0  0  0  0  0  0
   -0.7261   -0.4298    0.0000 C   0  0  0  0  0  0  0  0  0  0  0  0
   -2.0332    0.3061    0.0000 C   0  0  0  0  0  0  0  0  0  0  0  0
   -3.3240   -0.4580    0.0000 C   0  0  0  0  0  0  0  0  0  0  0  0
   -4.6311    0.2779    0.0000 C   0  0  0  0  0  0  0  0  0  0  0  0
   -4.6474    1.7778    0.0000 N   0  0  0  0  0  0  0  0  0  0  0  0
   -5.9219   -0.4862    0.0000 C   0  0  0  0  0  0  0  0  0  0  0  0
   -5.9056   -1.9861    0.0000 O   0  0  0  0  0  0  0  0  0  0  0  0
   -7.2290    0.2496    0.0000 O   0  0  0  0  0  0  0  0  0  0  0  0
  1  2  3  0
  2  3  1  0
  3  4  1  0
  4  5  1  0
  5  6  2  0
  5  7  1  0
  7  8  1  0
  8  9  1  0
  9 10  1  0
 10 11  1  0
 11 12  1  0
 12 13  1  6
 12 14  1  0
 14 15  2  0
 14 16  1  0
M  END
>  <rName>  (2409) 
D-Lys_pent4ynoyl

>  <PQ_SYMBOL>  (2409) 
D-Lys_pent4ynoyl

>  <FULL_NAME>  (2409) 
N6-(pent-4-ynoyl)-D-lysine

>  <IUPAC_CONDENSED>  (2409) 
D-Lys(pent-4-ynoyl)

>  <IUPAC>  (2409) 
(2R)-2-amino-6-(but-3-yn-1-ylcarbonylamino)hexanoic acid

>  <TYPE>  (2409) 
Backbone

>  <CLASS>  (2409) 
alpha

>  <ANALOG>  (2409) 
Lys

>  <MOL_WT>  (2409) 
226.27599999999998

>  <LOGP>  (2409) 
0.09820000000000079

>  <TPSA>  (2409) 
92.42

>  <POPULARITY>  (2409) 
3

>  <PROTECTED>  (2409) 
TRUE

>  <SMILES>  (2409) 
C#CCCC(=O)NCCCC[C@@H](N)C(=O)O

>  <INCHIKEY>  (2409) 
RYIXPBHBRDRADN-SECBINFHSA-N

$$$$
Lys_pent4ynoyl
     RDKit          2D

 16 15  0  0  0  0  0  0  0  0999 V2000
    8.3748   -1.0810    0.0000 C   0  0  0  0  0  0  0  0  0  0  0  0
    7.0677   -0.3451    0.0000 C   0  0  0  0  0  0  0  0  0  0  0  0
    5.7606    0.3907    0.0000 C   0  0  0  0  0  0  0  0  0  0  0  0
    4.4698   -0.3734    0.0000 C   0  0  0  0  0  0  0  0  0  0  0  0
    3.1627    0.3625    0.0000 C   0  0  0  0  0  0  0  0  0  0  0  0
    3.1464    1.8624    0.0000 O   0  0  0  0  0  0  0  0  0  0  0  0
    1.8718   -0.4016    0.0000 N   0  0  0  0  0  0  0  0  0  0  0  0
    0.5647    0.3343    0.0000 C   0  0  0  0  0  0  0  0  0  0  0  0
   -0.7261   -0.4298    0.0000 C   0  0  0  0  0  0  0  0  0  0  0  0
   -2.0332    0.3061    0.0000 C   0  0  0  0  0  0  0  0  0  0  0  0
   -3.3240   -0.4580    0.0000 C   0  0  0  0  0  0  0  0  0  0  0  0
   -4.6311    0.2779    0.0000 C   0  0  0  0  0  0  0  0  0  0  0  0
   -4.6474    1.7778    0.0000 N   0  0  0  0  0  0  0  0  0  0  0  0
   -5.9219   -0.4862    0.0000 C   0  0  0  0  0  0  0  0  0  0  0  0
   -5.9056   -1.9861    0.0000 O   0  0  0  0  0  0  0  0  0  0  0  0
   -7.2290    0.2496    0.0000 O   0  0  0  0  0  0  0  0  0  0  0  0
  1  2  3  0
  2  3  1  0
  3  4  1  0
  4  5  1  0
  5  6  2  0
  5  7  1  0
  7  8  1  0
  8  9  1  0
  9 10  1  0
 10 11  1  0
 11 12  1  0
 12 13  1  1
 12 14  1  0
 14 15  2  0
 14 16  1  0
M  END
>  <rName>  (2410) 
Lys_pent4ynoyl

>  <PQ_SYMBOL>  (2410) 
Lys_pent4ynoyl

>  <FULL_NAME>  (2410) 
N6-(pent-4-ynoyl)-L-lysine

>  <IUPAC_CONDENSED>  (2410) 
Lys(pent-4-ynoyl)

>  <IUPAC>  (2410) 
(2S)-2-amino-6-(but-3-yn-1-ylcarbonylamino)hexanoic acid

>  <TYPE>  (2410) 
Backbone

>  <CLASS>  (2410) 
alpha

>  <ANALOG>  (2410) 
Lys

>  <MOL_WT>  (2410) 
226.27599999999998

>  <LOGP>  (2410) 
0.09820000000000079

>  <TPSA>  (2410) 
92.42

>  <POPULARITY>  (2410) 
5

>  <PROTECTED>  (2410) 
TRUE

>  <SMILES>  (2410) 
C#CCCC(=O)NCCCC[C@H](N)C(=O)O

>  <INCHIKEY>  (2410) 
RYIXPBHBRDRADN-VIFPVBQESA-N

$$$$
Ala_quinolin8yl
     RDKit          2D

 16 17  0  0  0  0  0  0  0  0999 V2000
   -2.7457   -1.6512    0.0000 N   0  0  0  0  0  0  0  0  0  0  0  0
   -2.6203   -0.1565    0.0000 C   0  0  0  0  0  0  0  0  0  0  0  0
   -1.2631    0.4823    0.0000 C   0  0  0  0  0  0  0  0  0  0  0  0
   -0.0314   -0.3737    0.0000 C   0  0  0  0  0  0  0  0  0  0  0  0
   -0.1568   -1.8684    0.0000 C   0  0  0  0  0  0  0  0  0  0  0  0
    1.0750   -2.7244    0.0000 C   0  0  0  0  0  0  0  0  0  0  0  0
    2.4322   -2.0856    0.0000 C   0  0  0  0  0  0  0  0  0  0  0  0
    2.5576   -0.5909    0.0000 C   0  0  0  0  0  0  0  0  0  0  0  0
    3.9148    0.0479    0.0000 C   0  0  0  0  0  0  0  0  0  0  0  0
    4.0402    1.5426    0.0000 C   0  0  0  0  0  0  0  0  0  0  0  0
    2.8084    2.3986    0.0000 C   0  0  0  0  0  0  0  0  0  0  0  0
    1.4512    1.7598    0.0000 N   0  0  0  0  0  0  0  0  0  0  0  0
    1.3258    0.2651    0.0000 C   0  0  0  0  0  0  0  0  0  0  0  0
   -3.8521    0.6995    0.0000 C   0  0  0  0  0  0  0  0  0  0  0  0
   -3.7267    2.1942    0.0000 O   0  0  0  0  0  0  0  0  0  0  0  0
   -5.2093    0.0607    0.0000 O   0  0  0  0  0  0  0  0  0  0  0  0
  2  1  1  6
  2  3  1  0
  3  4  1  0
  4  5  2  0
  5  6  1  0
  6  7  2  0
  7  8  1  0
  8  9  2  0
  9 10  1  0
 10 11  2  0
 11 12  1  0
 12 13  2  0
  2 14  1  0
 14 15  2  0
 14 16  1  0
 13  8  1  0
 13  4  1  0
M  END
>  <rName>  (2411) 
Ala_quinolin8yl

>  <PQ_SYMBOL>  (2411) 
Ala_quinolin8yl

>  <FULL_NAME>  (2411) 
(S)-2-amino-3-(quinolin-8-yl)propanoic acid

>  <IUPAC_CONDENSED>  (2411) 
Ala(quinolin-8-yl)

>  <IUPAC>  (2411) 
(2S)-2-amino-3-(2-azabicyclo[4.4.0]deca-1,3,5,7,9-pentaen-10-yl)propanoic acid

>  <TYPE>  (2411) 
Backbone

>  <CLASS>  (2411) 
alpha

>  <ANALOG>  (2411) 
Phe

>  <MOL_WT>  (2411) 
216.23999999999998

>  <LOGP>  (2411) 
1.1892

>  <TPSA>  (2411) 
76.21

>  <POPULARITY>  (2411) 
5

>  <PROTECTED>  (2411) 
TRUE

>  <SMILES>  (2411) 
N[C@@H](Cc2(cccc1(cccnc12)))C(=O)O

>  <INCHIKEY>  (2411) 
IMFYLYWEXLUDKO-JTQLQIEISA-N

$$$$
D-Ala_N3
     RDKit          2D

  9  8  0  0  0  0  0  0  0  0999 V2000
    1.0341    1.9185    0.0000 N   0  0  0  0  0  0  0  0  0  0  0  0
    0.9057    0.4240    0.0000 C   0  0  0  0  0  0  0  0  0  0  0  0
   -0.4528   -0.2120    0.0000 C   0  0  0  0  0  0  0  0  0  0  0  0
   -1.6829    0.6465    0.0000 N   0  0  0  0  0  0  0  0  0  0  0  0
   -3.0414    0.0105    0.0000 N   0  0  0  0  0  0  0  0  0  0  0  0
   -4.3999   -0.6255    0.0000 N   0  0  0  0  0  0  0  0  0  0  0  0
    2.1357   -0.4345    0.0000 C   0  0  0  0  0  0  0  0  0  0  0  0
    2.0072   -1.9290    0.0000 O   0  0  0  0  0  0  0  0  0  0  0  0
    3.4942    0.2015    0.0000 O   0  0  0  0  0  0  0  0  0  0  0  0
  2  1  1  1
  2  3  1  0
  3  4  1  0
  4  5  2  0
  5  6  2  0
  2  7  1  0
  7  8  2  0
  7  9  1  0
M  CHG  2   5   1   6  -1
M  END
>  <rName>  (2412) 
D-Ala_N3

>  <PQ_SYMBOL>  (2412) 
D-Ala_N3

>  <FULL_NAME>  (2412) 
(R)-2-amino-3-azidopropanoic acid

>  <IUPAC_CONDENSED>  (2412) 
D-Ala(N3)

>  <IUPAC>  (2412) 
(2R)-2-amino-3-azidopropanoic acid

>  <TYPE>  (2412) 
Backbone

>  <CLASS>  (2412) 
alpha

>  <ANALOG>  (2412) 
X

>  <MOL_WT>  (2412) 
130.107

>  <LOGP>  (2412) 
-0.29140000000000016

>  <TPSA>  (2412) 
112.08

>  <POPULARITY>  (2412) 
5.7

>  <PROTECTED>  (2412) 
TRUE

>  <SMILES>  (2412) 
N[C@H](CN=[N+]=[N-])C(=O)O

>  <INCHIKEY>  (2412) 
CIFCKCQAKQRJFC-UWTATZPHSA-N

$$$$
Phe_2Bz
     RDKit          2D

 20 21  0  0  0  0  0  0  0  0999 V2000
   -4.1453    1.0317    0.0000 N   0  0  0  0  0  0  0  0  0  0  0  0
   -3.4751   -0.3103    0.0000 C   0  0  0  0  0  0  0  0  0  0  0  0
   -1.9778   -0.4009    0.0000 C   0  0  0  0  0  0  0  0  0  0  0  0
   -1.1507    0.8505    0.0000 C   0  0  0  0  0  0  0  0  0  0  0  0
   -1.8209    2.1924    0.0000 C   0  0  0  0  0  0  0  0  0  0  0  0
   -0.9938    3.4438    0.0000 C   0  0  0  0  0  0  0  0  0  0  0  0
    0.5034    3.3532    0.0000 C   0  0  0  0  0  0  0  0  0  0  0  0
    1.1736    2.0113    0.0000 C   0  0  0  0  0  0  0  0  0  0  0  0
    0.3465    0.7599    0.0000 C   0  0  0  0  0  0  0  0  0  0  0  0
    1.0167   -0.5821    0.0000 C   0  0  0  0  0  0  0  0  0  0  0  0
    0.1896   -1.8335    0.0000 O   0  0  0  0  0  0  0  0  0  0  0  0
    2.5140   -0.6727    0.0000 C   0  0  0  0  0  0  0  0  0  0  0  0
    3.1841   -2.0146    0.0000 C   0  0  0  0  0  0  0  0  0  0  0  0
    4.6814   -2.1052    0.0000 C   0  0  0  0  0  0  0  0  0  0  0  0
    5.5085   -0.8539    0.0000 C   0  0  0  0  0  0  0  0  0  0  0  0
    4.8383    0.4881    0.0000 C   0  0  0  0  0  0  0  0  0  0  0  0
    3.3410    0.5787    0.0000 C   0  0  0  0  0  0  0  0  0  0  0  0
   -4.3022   -1.5617    0.0000 C   0  0  0  0  0  0  0  0  0  0  0  0
   -3.6320   -2.9036    0.0000 O   0  0  0  0  0  0  0  0  0  0  0  0
   -5.7994   -1.4711    0.0000 O   0  0  0  0  0  0  0  0  0  0  0  0
  2  1  1  1
  2  3  1  0
  3  4  1  0
  4  5  2  0
  5  6  1  0
  6  7  2  0
  7  8  1  0
  8  9  2  0
  9 10  1  0
 10 11  2  0
 10 12  1  0
 12 13  2  0
 13 14  1  0
 14 15  2  0
 15 16  1  0
 16 17  2  0
  2 18  1  0
 18 19  2  0
 18 20  1  0
  9  4  1  0
 17 12  1  0
M  END
>  <rName>  (2413) 
Phe_2Bz

>  <PQ_SYMBOL>  (2413) 
Phe_2Bz

>  <FULL_NAME>  (2413) 
(S)-2-amino-3-(2-benzoylphenyl)propanoic acid

>  <IUPAC_CONDENSED>  (2413) 
Phe(2-Bz)

>  <IUPAC>  (2413) 
(2S)-2-amino-3-(2-((phenyl)carbonyl)phenyl)propanoic acid

>  <TYPE>  (2413) 
Backbone

>  <CLASS>  (2413) 
alpha

>  <ANALOG>  (2413) 
Phe

>  <MOL_WT>  (2413) 
269.29999999999995

>  <LOGP>  (2413) 
1.872

>  <TPSA>  (2413) 
80.39

>  <POPULARITY>  (2413) 
3.2

>  <PROTECTED>  (2413) 
TRUE

>  <SMILES>  (2413) 
N[C@@H](Cc1(ccccc1C(=O)c2(ccccc2)))C(=O)O

>  <INCHIKEY>  (2413) 
AVEJZVBCQMMMMG-AWEZNQCLSA-N

$$$$
Trp_6NO2_Aza
     RDKit          2D

 18 19  0  0  0  0  0  0  0  0999 V2000
   -3.8235   -1.5704    0.0000 N   0  0  0  0  0  0  0  0  0  0  0  0
   -3.6408   -0.0815    0.0000 C   0  0  0  0  0  0  0  0  0  0  0  0
   -2.2602    0.5047    0.0000 C   0  0  0  0  0  0  0  0  0  0  0  0
   -1.0621   -0.3978    0.0000 C   0  0  0  0  0  0  0  0  0  0  0  0
   -1.0881   -1.8976    0.0000 N   0  0  0  0  0  0  0  0  0  0  0  0
    0.3303   -2.3858    0.0000 N   0  0  0  0  0  0  0  0  0  0  0  0
    1.2328   -1.1877    0.0000 C   0  0  0  0  0  0  0  0  0  0  0  0
    2.7271   -1.0568    0.0000 C   0  0  0  0  0  0  0  0  0  0  0  0
    3.3609    0.3027    0.0000 C   0  0  0  0  0  0  0  0  0  0  0  0
    2.5003    1.5314    0.0000 C   0  0  0  0  0  0  0  0  0  0  0  0
    1.0061    1.4004    0.0000 C   0  0  0  0  0  0  0  0  0  0  0  0
    0.3723    0.0409    0.0000 C   0  0  0  0  0  0  0  0  0  0  0  0
    4.8551    0.4337    0.0000 N   0  0  0  0  0  0  0  0  0  0  0  0
    5.4889    1.7932    0.0000 O   0  0  0  0  0  0  0  0  0  0  0  0
    5.7157   -0.7950    0.0000 O   0  0  0  0  0  0  0  0  0  0  0  0
   -4.8389    0.8210    0.0000 C   0  0  0  0  0  0  0  0  0  0  0  0
   -4.6563    2.3099    0.0000 O   0  0  0  0  0  0  0  0  0  0  0  0
   -6.2196    0.2348    0.0000 O   0  0  0  0  0  0  0  0  0  0  0  0
  2  1  1  6
  2  3  1  0
  3  4  1  0
  4  5  2  0
  5  6  1  0
  6  7  1  0
  7  8  1  0
  8  9  2  0
  9 10  1  0
 10 11  2  0
 11 12  1  0
  9 13  1  0
 13 14  2  0
 13 15  1  0
  2 16  1  0
 16 17  2  0
 16 18  1  0
 12  7  2  0
 12  4  1  0
M  CHG  2  13   1  15  -1
M  END
>  <rName>  (2414) 
Trp_6NO2_Aza

>  <PQ_SYMBOL>  (2414) 
Trp_6NO2_Aza

>  <FULL_NAME>  (2414) 
(S)-2-amino-3-(6-nitro-1H-indazol-3-yl)propanoic acid

>  <IUPAC_CONDENSED>  (2414) 
Trp(6-NO2,Aza)

>  <IUPAC>  (2414) 
(2S)-2-amino-3-(6-nitro-1H-indazol-3-yl)propanoic acid

>  <TYPE>  (2414) 
Backbone

>  <CLASS>  (2414) 
alpha

>  <ANALOG>  (2414) 
Phe

>  <MOL_WT>  (2414) 
250.214

>  <LOGP>  (2414) 
0.42549999999999955

>  <TPSA>  (2414) 
135.14

>  <POPULARITY>  (2414) 
2.2

>  <PROTECTED>  (2414) 
TRUE

>  <SMILES>  (2414) 
N[C@@H](Cc2(n[nH]c1(cc(ccc12)[N+](=O)[O-])))C(=O)O

>  <INCHIKEY>  (2414) 
VCSXNPSSWYNAGK-ZETCQYMHSA-N

$$$$
Phe_2NH2_5CO2H
     RDKit          2D

 16 16  0  0  0  0  0  0  0  0999 V2000
    1.4458   -1.7915    0.0000 N   0  0  0  0  0  0  0  0  0  0  0  0
    2.2696   -0.5380    0.0000 C   0  0  0  0  0  0  0  0  0  0  0  0
    1.5959    0.8022    0.0000 C   0  0  0  0  0  0  0  0  0  0  0  0
    0.0984    0.8889    0.0000 C   0  0  0  0  0  0  0  0  0  0  0  0
   -0.7254   -0.3646    0.0000 C   0  0  0  0  0  0  0  0  0  0  0  0
   -2.2229   -0.2780    0.0000 C   0  0  0  0  0  0  0  0  0  0  0  0
   -2.8966    1.0622    0.0000 C   0  0  0  0  0  0  0  0  0  0  0  0
   -2.0728    2.3158    0.0000 C   0  0  0  0  0  0  0  0  0  0  0  0
   -0.5753    2.2291    0.0000 C   0  0  0  0  0  0  0  0  0  0  0  0
    0.2485    3.4826    0.0000 N   0  0  0  0  0  0  0  0  0  0  0  0
   -3.0467   -1.5315    0.0000 C   0  0  0  0  0  0  0  0  0  0  0  0
   -2.3730   -2.8717    0.0000 O   0  0  0  0  0  0  0  0  0  0  0  0
   -4.5442   -1.4448    0.0000 O   0  0  0  0  0  0  0  0  0  0  0  0
    3.7671   -0.6247    0.0000 C   0  0  0  0  0  0  0  0  0  0  0  0
    4.5909    0.6289    0.0000 O   0  0  0  0  0  0  0  0  0  0  0  0
    4.4408   -1.9649    0.0000 O   0  0  0  0  0  0  0  0  0  0  0  0
  2  1  1  1
  2  3  1  0
  3  4  1  0
  4  5  1  0
  5  6  2  0
  6  7  1  0
  7  8  2  0
  8  9  1  0
  9 10  1  0
  6 11  1  0
 11 12  2  0
 11 13  1  0
  2 14  1  0
 14 15  2  0
 14 16  1  0
  9  4  2  0
M  END
>  <rName>  (2415) 
Phe_2NH2_5CO2H

>  <PQ_SYMBOL>  (2415) 
Phe_2NH2_5CO2H

>  <FULL_NAME>  (2415) 
(S)-4-amino-3-(2-amino-2-carboxyethyl)benzoic acid

>  <IUPAC_CONDENSED>  (2415) 
Phe(2-NH2,5-CO2H)

>  <IUPAC>  (2415) 
4-amino-3-((2S)-2-amino-3-hydroxy-3-oxopropyl)benzoic acid

>  <TYPE>  (2415) 
Backbone

>  <CLASS>  (2415) 
alpha

>  <ANALOG>  (2415) 
Phe

>  <MOL_WT>  (2415) 
224.21599999999995

>  <LOGP>  (2415) 
-0.07860000000000034

>  <TPSA>  (2415) 
126.64

>  <POPULARITY>  (2415) 
3

>  <PROTECTED>  (2415) 
TRUE

>  <SMILES>  (2415) 
N[C@@H](Cc1(cc(ccc1N)C(=O)O))C(=O)O

>  <INCHIKEY>  (2415) 
LDJURSVBWRDIII-QMMMGPOBSA-N

$$$$
3Pal_2OEt
     RDKit          2D

 15 15  0  0  0  0  0  0  0  0999 V2000
   -2.5806    1.5526    0.0000 N   0  0  0  0  0  0  0  0  0  0  0  0
   -2.3052    0.0781    0.0000 C   0  0  0  0  0  0  0  0  0  0  0  0
   -0.8905   -0.4207    0.0000 C   0  0  0  0  0  0  0  0  0  0  0  0
    0.2487    0.5551    0.0000 C   0  0  0  0  0  0  0  0  0  0  0  0
   -0.0267    2.0296    0.0000 C   0  0  0  0  0  0  0  0  0  0  0  0
    1.1126    3.0054    0.0000 C   0  0  0  0  0  0  0  0  0  0  0  0
    2.5272    2.5066    0.0000 C   0  0  0  0  0  0  0  0  0  0  0  0
    2.8026    1.0321    0.0000 N   0  0  0  0  0  0  0  0  0  0  0  0
    1.6634    0.0564    0.0000 C   0  0  0  0  0  0  0  0  0  0  0  0
    1.9388   -1.4181    0.0000 O   0  0  0  0  0  0  0  0  0  0  0  0
    3.3534   -1.9169    0.0000 C   0  0  0  0  0  0  0  0  0  0  0  0
    3.6288   -3.3914    0.0000 C   0  0  0  0  0  0  0  0  0  0  0  0
   -3.4444   -0.8977    0.0000 C   0  0  0  0  0  0  0  0  0  0  0  0
   -3.1690   -2.3722    0.0000 O   0  0  0  0  0  0  0  0  0  0  0  0
   -4.8591   -0.3989    0.0000 O   0  0  0  0  0  0  0  0  0  0  0  0
  2  1  1  1
  2  3  1  0
  3  4  1  0
  4  5  2  0
  5  6  1  0
  6  7  2  0
  7  8  1  0
  8  9  2  0
  9 10  1  0
 10 11  1  0
 11 12  1  0
  2 13  1  0
 13 14  2  0
 13 15  1  0
  9  4  1  0
M  END
>  <rName>  (2416) 
3Pal_2OEt

>  <PQ_SYMBOL>  (2416) 
3Pal_2OEt

>  <FULL_NAME>  (2416) 
(S)-2-amino-3-(2-ethoxypyridin-3-yl)propanoic acid

>  <IUPAC_CONDENSED>  (2416) 
3Pal(2-OEt)

>  <IUPAC>  (2416) 
(2S)-2-amino-3-(2-ethoxypyridin-3-yl)propanoic acid

>  <TYPE>  (2416) 
Backbone

>  <CLASS>  (2416) 
alpha

>  <ANALOG>  (2416) 
Phe

>  <MOL_WT>  (2416) 
210.23299999999995

>  <LOGP>  (2416) 
0.43470000000000003

>  <TPSA>  (2416) 
85.44000000000001

>  <POPULARITY>  (2416) 
3

>  <PROTECTED>  (2416) 
TRUE

>  <SMILES>  (2416) 
N[C@@H](Cc1(cccnc1OCC))C(=O)O

>  <INCHIKEY>  (2416) 
RNUZXEHMUPMDOG-QMMMGPOBSA-N

$$$$
Phe_4CONH2
     RDKit          2D

 16 16  0  0  0  0  0  0  0  0999 V2000
   -2.6998    1.6709    0.0000 N   0  0  0  0  0  0  0  0  0  0  0  0
   -3.1656    0.2451    0.0000 C   0  0  0  0  0  0  0  0  0  0  0  0
   -2.1637   -0.8712    0.0000 C   0  0  0  0  0  0  0  0  0  0  0  0
   -0.6959   -0.5617    0.0000 C   0  0  0  0  0  0  0  0  0  0  0  0
   -0.2302    0.8642    0.0000 C   0  0  0  0  0  0  0  0  0  0  0  0
    1.2375    1.1738    0.0000 C   0  0  0  0  0  0  0  0  0  0  0  0
    2.2395    0.0575    0.0000 C   0  0  0  0  0  0  0  0  0  0  0  0
    1.7737   -1.3684    0.0000 C   0  0  0  0  0  0  0  0  0  0  0  0
    0.3060   -1.6780    0.0000 C   0  0  0  0  0  0  0  0  0  0  0  0
    3.7072    0.3670    0.0000 C   0  0  0  0  0  0  0  0  0  0  0  0
    4.1729    1.7929    0.0000 O   0  0  0  0  0  0  0  0  0  0  0  0
    4.7091   -0.7493    0.0000 N   0  0  0  0  0  0  0  0  0  0  0  0
    6.1768   -0.4397    0.0000 N   0  0  0  0  0  0  0  0  0  0  0  0
   -4.6333   -0.0645    0.0000 C   0  0  0  0  0  0  0  0  0  0  0  0
   -5.0991   -1.4904    0.0000 O   0  0  0  0  0  0  0  0  0  0  0  0
   -5.6353    1.0518    0.0000 O   0  0  0  0  0  0  0  0  0  0  0  0
  2  1  1  1
  2  3  1  0
  3  4  1  0
  4  5  1  0
  5  6  2  0
  6  7  1  0
  7  8  2  0
  8  9  1  0
  7 10  1  0
 10 11  2  0
 10 12  1  0
 12 13  1  0
  2 14  1  0
 14 15  2  0
 14 16  1  0
  9  4  2  0
M  END
>  <rName>  (2417) 
Phe_4CONH2

>  <PQ_SYMBOL>  (2417) 
Phe_4CONH2

>  <FULL_NAME>  (2417) 
(S)-2-amino-3-(4-(hydrazinecarbonyl)phenyl)propanoic acid

>  <IUPAC_CONDENSED>  (2417) 
Phe(4-CONH2)

>  <IUPAC>  (2417) 
(2S)-2-amino-3-(4-((hydrazinyl)carbonyl)phenyl)propanoic acid

>  <TYPE>  (2417) 
Backbone

>  <CLASS>  (2417) 
alpha

>  <ANALOG>  (2417) 
Phe

>  <MOL_WT>  (2417) 
223.23199999999997

>  <LOGP>  (2417) 
-0.7554999999999994

>  <TPSA>  (2417) 
118.44000000000001

>  <POPULARITY>  (2417) 
2.9

>  <PROTECTED>  (2417) 
TRUE

>  <SMILES>  (2417) 
N[C@@H](Cc1(ccc(cc1)C(=O)NN))C(=O)O

>  <INCHIKEY>  (2417) 
LDXSYIDRRDLLDF-QMMMGPOBSA-N

$$$$
Ala_pyrazolopyridinyl
     RDKit          2D

 15 16  0  0  0  0  0  0  0  0999 V2000
    2.3960   -1.7012    0.0000 N   0  0  0  0  0  0  0  0  0  0  0  0
    2.3823   -0.2013    0.0000 C   0  0  0  0  0  0  0  0  0  0  0  0
    1.0765    0.5368    0.0000 C   0  0  0  0  0  0  0  0  0  0  0  0
   -0.2156   -0.2250    0.0000 C   0  0  0  0  0  0  0  0  0  0  0  0
   -0.2020   -1.7249    0.0000 C   0  0  0  0  0  0  0  0  0  0  0  0
   -1.4941   -2.4867    0.0000 C   0  0  0  0  0  0  0  0  0  0  0  0
   -2.7999   -1.7486    0.0000 N   0  0  0  0  0  0  0  0  0  0  0  0
   -2.8136   -0.2486    0.0000 C   0  0  0  0  0  0  0  0  0  0  0  0
   -3.9374    0.7448    0.0000 N   0  0  0  0  0  0  0  0  0  0  0  0
   -3.3398    2.1207    0.0000 N   0  0  0  0  0  0  0  0  0  0  0  0
   -1.8467    1.9775    0.0000 C   0  0  0  0  0  0  0  0  0  0  0  0
   -1.5214    0.5132    0.0000 C   0  0  0  0  0  0  0  0  0  0  0  0
    3.6745    0.5605    0.0000 C   0  0  0  0  0  0  0  0  0  0  0  0
    3.6608    2.0605    0.0000 O   0  0  0  0  0  0  0  0  0  0  0  0
    4.9803   -0.1776    0.0000 O   0  0  0  0  0  0  0  0  0  0  0  0
  2  1  1  1
  2  3  1  0
  3  4  1  0
  4  5  1  0
  5  6  2  0
  6  7  1  0
  7  8  2  0
  8  9  1  0
  9 10  1  0
 10 11  2  0
 11 12  1  0
  2 13  1  0
 13 14  2  0
 13 15  1  0
 12  8  1  0
 12  4  2  0
M  END
>  <rName>  (2418) 
Ala_pyrazolopyridinyl

>  <PQ_SYMBOL>  (2418) 
Ala_pyrazolopyridinyl

>  <FULL_NAME>  (2418) 
(S)-2-amino-3-(1H-pyrazolo[3,4-b]pyridin-4-yl)propanoic acid

>  <IUPAC_CONDENSED>  (2418) 
Ala(pyrazolopyridinyl)

>  <IUPAC>  (2418) 
(2S)-2-amino-3-(2,8,9-triazabicyclo[4.3.0]nona-1(6),2,4,7-tetraen-5-yl)propanoic acid

>  <TYPE>  (2418) 
Backbone

>  <CLASS>  (2418) 
alpha

>  <ANALOG>  (2418) 
Phe

>  <MOL_WT>  (2418) 
206.20499999999998

>  <LOGP>  (2418) 
-0.08770000000000039

>  <TPSA>  (2418) 
104.89

>  <POPULARITY>  (2418) 
2.4

>  <PROTECTED>  (2418) 
TRUE

>  <SMILES>  (2418) 
N[C@@H](Cc2(ccnc1([nH]ncc12)))C(=O)O

>  <INCHIKEY>  (2418) 
GYCRZNVIRVOGOG-ZETCQYMHSA-N

$$$$
Phe_2Me_5F
     RDKit          2D

 14 14  0  0  0  0  0  0  0  0999 V2000
   -1.4552    1.7882    0.0000 N   0  0  0  0  0  0  0  0  0  0  0  0
   -1.9325    0.3661    0.0000 C   0  0  0  0  0  0  0  0  0  0  0  0
   -0.9397   -0.7583    0.0000 C   0  0  0  0  0  0  0  0  0  0  0  0
    0.5305   -0.4606    0.0000 C   0  0  0  0  0  0  0  0  0  0  0  0
    1.0078    0.9614    0.0000 C   0  0  0  0  0  0  0  0  0  0  0  0
    2.4780    1.2591    0.0000 C   0  0  0  0  0  0  0  0  0  0  0  0
    2.9553    2.6811    0.0000 F   0  0  0  0  0  0  0  0  0  0  0  0
    3.4709    0.1347    0.0000 C   0  0  0  0  0  0  0  0  0  0  0  0
    2.9935   -1.2874    0.0000 C   0  0  0  0  0  0  0  0  0  0  0  0
    1.5234   -1.5850    0.0000 C   0  0  0  0  0  0  0  0  0  0  0  0
    1.0461   -3.0070    0.0000 C   0  0  0  0  0  0  0  0  0  0  0  0
   -3.4027    0.0685    0.0000 C   0  0  0  0  0  0  0  0  0  0  0  0
   -3.8800   -1.3536    0.0000 O   0  0  0  0  0  0  0  0  0  0  0  0
   -4.3955    1.1929    0.0000 O   0  0  0  0  0  0  0  0  0  0  0  0
  2  1  1  1
  2  3  1  0
  3  4  1  0
  4  5  1  0
  5  6  2  0
  6  7  1  0
  6  8  1  0
  8  9  2  0
  9 10  1  0
 10 11  1  0
  2 12  1  0
 12 13  2  0
 12 14  1  0
 10  4  2  0
M  END
>  <rName>  (2419) 
Phe_2Me_5F

>  <PQ_SYMBOL>  (2419) 
Phe_2Me_5F

>  <FULL_NAME>  (2419) 
(S)-2-amino-3-(5-fluoro-2-methylphenyl)propanoic acid

>  <IUPAC_CONDENSED>  (2419) 
Phe(2-Me,5-F)

>  <IUPAC>  (2419) 
(2S)-2-amino-3-(5-fluoro-2-methylphenyl)propanoic acid

>  <TYPE>  (2419) 
Backbone

>  <CLASS>  (2419) 
alpha

>  <ANALOG>  (2419) 
Phe

>  <MOL_WT>  (2419) 
197.20899999999997

>  <LOGP>  (2419) 
1.0885200000000002

>  <TPSA>  (2419) 
63.32000000000001

>  <POPULARITY>  (2419) 
4.2

>  <PROTECTED>  (2419) 
TRUE

>  <SMILES>  (2419) 
N[C@@H](Cc1(cc(F)ccc1C))C(=O)O

>  <INCHIKEY>  (2419) 
GEAWAECTQJKAAV-VIFPVBQESA-N

$$$$
Phe_2NH2_5Me
     RDKit          2D

 14 14  0  0  0  0  0  0  0  0999 V2000
   -1.4552    1.7882    0.0000 N   0  0  0  0  0  0  0  0  0  0  0  0
   -1.9325    0.3661    0.0000 C   0  0  0  0  0  0  0  0  0  0  0  0
   -0.9397   -0.7583    0.0000 C   0  0  0  0  0  0  0  0  0  0  0  0
    0.5305   -0.4606    0.0000 C   0  0  0  0  0  0  0  0  0  0  0  0
    1.0078    0.9614    0.0000 C   0  0  0  0  0  0  0  0  0  0  0  0
    2.4780    1.2591    0.0000 C   0  0  0  0  0  0  0  0  0  0  0  0
    2.9553    2.6811    0.0000 C   0  0  0  0  0  0  0  0  0  0  0  0
    3.4709    0.1347    0.0000 C   0  0  0  0  0  0  0  0  0  0  0  0
    2.9935   -1.2874    0.0000 C   0  0  0  0  0  0  0  0  0  0  0  0
    1.5234   -1.5850    0.0000 C   0  0  0  0  0  0  0  0  0  0  0  0
    1.0461   -3.0070    0.0000 N   0  0  0  0  0  0  0  0  0  0  0  0
   -3.4027    0.0685    0.0000 C   0  0  0  0  0  0  0  0  0  0  0  0
   -3.8800   -1.3536    0.0000 O   0  0  0  0  0  0  0  0  0  0  0  0
   -4.3955    1.1929    0.0000 O   0  0  0  0  0  0  0  0  0  0  0  0
  2  1  1  1
  2  3  1  0
  3  4  1  0
  4  5  1  0
  5  6  2  0
  6  7  1  0
  6  8  1  0
  8  9  2  0
  9 10  1  0
 10 11  1  0
  2 12  1  0
 12 13  2  0
 12 14  1  0
 10  4  2  0
M  END
>  <rName>  (2420) 
Phe_2NH2_5Me

>  <PQ_SYMBOL>  (2420) 
Phe_2NH2_5Me

>  <FULL_NAME>  (2420) 
(S)-2-amino-3-(2-amino-5-methylphenyl)propanoic acid

>  <IUPAC_CONDENSED>  (2420) 
Phe(2-NH2,5-Me)

>  <IUPAC>  (2420) 
(2S)-2-amino-3-(2-amino-5-methylphenyl)propanoic acid

>  <TYPE>  (2420) 
Backbone

>  <CLASS>  (2420) 
alpha

>  <ANALOG>  (2420) 
Phe

>  <MOL_WT>  (2420) 
194.23399999999995

>  <LOGP>  (2420) 
0.53162

>  <TPSA>  (2420) 
89.34

>  <POPULARITY>  (2420) 
4.3

>  <PROTECTED>  (2420) 
TRUE

>  <SMILES>  (2420) 
N[C@@H](Cc1(cc(C)ccc1N))C(=O)O

>  <INCHIKEY>  (2420) 
YBTVDJJROZMERN-VIFPVBQESA-N

$$$$
3Pal_2F_5Me
     RDKit          2D

 14 14  0  0  0  0  0  0  0  0999 V2000
   -1.4552    1.7882    0.0000 N   0  0  0  0  0  0  0  0  0  0  0  0
   -1.9325    0.3661    0.0000 C   0  0  0  0  0  0  0  0  0  0  0  0
   -0.9397   -0.7583    0.0000 C   0  0  0  0  0  0  0  0  0  0  0  0
    0.5305   -0.4606    0.0000 C   0  0  0  0  0  0  0  0  0  0  0  0
    1.0078    0.9614    0.0000 C   0  0  0  0  0  0  0  0  0  0  0  0
    2.4780    1.2591    0.0000 C   0  0  0  0  0  0  0  0  0  0  0  0
    2.9553    2.6811    0.0000 C   0  0  0  0  0  0  0  0  0  0  0  0
    3.4709    0.1347    0.0000 C   0  0  0  0  0  0  0  0  0  0  0  0
    2.9935   -1.2874    0.0000 N   0  0  0  0  0  0  0  0  0  0  0  0
    1.5234   -1.5850    0.0000 C   0  0  0  0  0  0  0  0  0  0  0  0
    1.0461   -3.0070    0.0000 F   0  0  0  0  0  0  0  0  0  0  0  0
   -3.4027    0.0685    0.0000 C   0  0  0  0  0  0  0  0  0  0  0  0
   -3.8800   -1.3536    0.0000 O   0  0  0  0  0  0  0  0  0  0  0  0
   -4.3955    1.1929    0.0000 O   0  0  0  0  0  0  0  0  0  0  0  0
  2  1  1  1
  2  3  1  0
  3  4  1  0
  4  5  1  0
  5  6  2  0
  6  7  1  0
  6  8  1  0
  8  9  2  0
  9 10  1  0
 10 11  1  0
  2 12  1  0
 12 13  2  0
 12 14  1  0
 10  4  2  0
M  END
>  <rName>  (2421) 
3Pal_2F_5Me

>  <PQ_SYMBOL>  (2421) 
3Pal_2F_5Me

>  <FULL_NAME>  (2421) 
(S)-2-amino-3-(2-fluoro-5-methylpyridin-3-yl)propanoic acid

>  <IUPAC_CONDENSED>  (2421) 
3Pal(2-F,5-Me)

>  <IUPAC>  (2421) 
(2S)-2-amino-3-(2-fluoro-5-methylpyridin-3-yl)propanoic acid

>  <TYPE>  (2421) 
Backbone

>  <CLASS>  (2421) 
alpha

>  <ANALOG>  (2421) 
Phe

>  <MOL_WT>  (2421) 
198.19699999999997

>  <LOGP>  (2421) 
0.4835199999999999

>  <TPSA>  (2421) 
76.21

>  <POPULARITY>  (2421) 
2.5

>  <PROTECTED>  (2421) 
TRUE

>  <SMILES>  (2421) 
N[C@@H](Cc1(cc(C)cnc1F))C(=O)O

>  <INCHIKEY>  (2421) 
JUCOCSXJVNWPNR-ZETCQYMHSA-N

$$$$
Trp_2CO2H
     RDKit          2D

 18 19  0  0  0  0  0  0  0  0999 V2000
   -1.5384    1.9433    0.0000 N   0  0  0  0  0  0  0  0  0  0  0  0
   -2.1877    0.5912    0.0000 C   0  0  0  0  0  0  0  0  0  0  0  0
   -1.3414   -0.6473    0.0000 C   0  0  0  0  0  0  0  0  0  0  0  0
    0.1543   -0.5336    0.0000 C   0  0  0  0  0  0  0  0  0  0  0  0
    1.1254   -1.6768    0.0000 C   0  0  0  0  0  0  0  0  0  0  0  0
    2.5127   -1.1064    0.0000 N   0  0  0  0  0  0  0  0  0  0  0  0
    2.3990    0.3893    0.0000 C   0  0  0  0  0  0  0  0  0  0  0  0
    3.4344    1.4746    0.0000 C   0  0  0  0  0  0  0  0  0  0  0  0
    3.0122    2.9139    0.0000 C   0  0  0  0  0  0  0  0  0  0  0  0
    1.5546    3.2680    0.0000 C   0  0  0  0  0  0  0  0  0  0  0  0
    0.5192    2.1827    0.0000 C   0  0  0  0  0  0  0  0  0  0  0  0
    0.9414    0.7433    0.0000 C   0  0  0  0  0  0  0  0  0  0  0  0
    0.7714   -3.1344    0.0000 C   0  0  0  0  0  0  0  0  0  0  0  0
   -0.6680   -3.5566    0.0000 O   0  0  0  0  0  0  0  0  0  0  0  0
    1.8567   -4.1698    0.0000 O   0  0  0  0  0  0  0  0  0  0  0  0
   -3.6834    0.4774    0.0000 C   0  0  0  0  0  0  0  0  0  0  0  0
   -4.3328   -0.8747    0.0000 O   0  0  0  0  0  0  0  0  0  0  0  0
   -4.5297    1.7159    0.0000 O   0  0  0  0  0  0  0  0  0  0  0  0
  2  1  1  1
  2  3  1  0
  3  4  1  0
  4  5  2  0
  5  6  1  0
  6  7  1  0
  7  8  2  0
  8  9  1  0
  9 10  2  0
 10 11  1  0
 11 12  2  0
  5 13  1  0
 13 14  2  0
 13 15  1  0
  2 16  1  0
 16 17  2  0
 16 18  1  0
 12  7  1  0
 12  4  1  0
M  END
>  <rName>  (2422) 
Trp_2CO2H

>  <PQ_SYMBOL>  (2422) 
Trp_2CO2H

>  <FULL_NAME>  (2422) 
(S)-3-(2-amino-2-carboxyethyl)-1H-indole-2-carboxylic acid

>  <IUPAC_CONDENSED>  (2422) 
Trp(2-CO2H)

>  <IUPAC>  (2422) 
3-((2S)-2-amino-3-hydroxy-3-oxopropyl)-1H-indole-2-carboxylic acid

>  <TYPE>  (2422) 
Backbone

>  <CLASS>  (2422) 
alpha

>  <ANALOG>  (2422) 
Trp

>  <MOL_WT>  (2422) 
248.23799999999997

>  <LOGP>  (2422) 
0.8205000000000002

>  <TPSA>  (2422) 
116.41000000000001

>  <POPULARITY>  (2422) 
2.9

>  <PROTECTED>  (2422) 
TRUE

>  <SMILES>  (2422) 
N[C@@H](Cc2(c([nH]c1(ccccc12))C(=O)O))C(=O)O

>  <INCHIKEY>  (2422) 
PPSIMJYXLLXZSK-QMMMGPOBSA-N

$$$$
Phe_3NH2_4Me
     RDKit          2D

 14 14  0  0  0  0  0  0  0  0999 V2000
   -2.0094    1.6916    0.0000 N   0  0  0  0  0  0  0  0  0  0  0  0
   -2.3243    0.2250    0.0000 C   0  0  0  0  0  0  0  0  0  0  0  0
   -1.2116   -0.7809    0.0000 C   0  0  0  0  0  0  0  0  0  0  0  0
    0.2159   -0.3203    0.0000 C   0  0  0  0  0  0  0  0  0  0  0  0
    0.5308    1.1463    0.0000 C   0  0  0  0  0  0  0  0  0  0  0  0
    1.9583    1.6069    0.0000 C   0  0  0  0  0  0  0  0  0  0  0  0
    3.0710    0.6009    0.0000 C   0  0  0  0  0  0  0  0  0  0  0  0
    4.4985    1.0615    0.0000 C   0  0  0  0  0  0  0  0  0  0  0  0
    2.7561   -0.8657    0.0000 C   0  0  0  0  0  0  0  0  0  0  0  0
    3.8688   -1.8716    0.0000 N   0  0  0  0  0  0  0  0  0  0  0  0
    1.3286   -1.3263    0.0000 C   0  0  0  0  0  0  0  0  0  0  0  0
   -3.7518   -0.2356    0.0000 C   0  0  0  0  0  0  0  0  0  0  0  0
   -4.0666   -1.7022    0.0000 O   0  0  0  0  0  0  0  0  0  0  0  0
   -4.8644    0.7704    0.0000 O   0  0  0  0  0  0  0  0  0  0  0  0
  2  1  1  1
  2  3  1  0
  3  4  1  0
  4  5  1  0
  5  6  2  0
  6  7  1  0
  7  8  1  0
  7  9  2  0
  9 10  1  0
  9 11  1  0
  2 12  1  0
 12 13  2  0
 12 14  1  0
 11  4  2  0
M  END
>  <rName>  (2423) 
Phe_3NH2_4Me

>  <PQ_SYMBOL>  (2423) 
Phe_3NH2_4Me

>  <FULL_NAME>  (2423) 
(S)-2-amino-3-(3-amino-4-methylphenyl)propanoic acid

>  <IUPAC_CONDENSED>  (2423) 
Phe(3-NH2,4-Me)

>  <IUPAC>  (2423) 
(2S)-2-amino-3-(3-amino-4-methylphenyl)propanoic acid

>  <TYPE>  (2423) 
Backbone

>  <CLASS>  (2423) 
alpha

>  <ANALOG>  (2423) 
Phe

>  <MOL_WT>  (2423) 
194.23399999999995

>  <LOGP>  (2423) 
0.53162

>  <TPSA>  (2423) 
89.34

>  <POPULARITY>  (2423) 
3.4

>  <PROTECTED>  (2423) 
TRUE

>  <SMILES>  (2423) 
N[C@@H](Cc1(ccc(C)c(N)c1))C(=O)O

>  <INCHIKEY>  (2423) 
UMNJZHVJQBSGQV-VIFPVBQESA-N

$$$$
Phe_2CN_4Cl
     RDKit          2D

 15 15  0  0  0  0  0  0  0  0999 V2000
   -1.8456    2.0551    0.0000 N   0  0  0  0  0  0  0  0  0  0  0  0
   -2.1748    0.5917    0.0000 C   0  0  0  0  0  0  0  0  0  0  0  0
   -1.0721   -0.4251    0.0000 C   0  0  0  0  0  0  0  0  0  0  0  0
    0.3599    0.0215    0.0000 C   0  0  0  0  0  0  0  0  0  0  0  0
    0.6891    1.4850    0.0000 C   0  0  0  0  0  0  0  0  0  0  0  0
    2.1211    1.9316    0.0000 C   0  0  0  0  0  0  0  0  0  0  0  0
    3.2238    0.9148    0.0000 C   0  0  0  0  0  0  0  0  0  0  0  0
    4.6558    1.3614    0.0000 Cl  0  0  0  0  0  0  0  0  0  0  0  0
    2.8947   -0.5486    0.0000 C   0  0  0  0  0  0  0  0  0  0  0  0
    1.4627   -0.9953    0.0000 C   0  0  0  0  0  0  0  0  0  0  0  0
    1.1335   -2.4587    0.0000 C   0  0  0  0  0  0  0  0  0  0  0  0
    0.8043   -3.9221    0.0000 N   0  0  0  0  0  0  0  0  0  0  0  0
   -3.6068    0.1451    0.0000 C   0  0  0  0  0  0  0  0  0  0  0  0
   -3.9360   -1.3184    0.0000 O   0  0  0  0  0  0  0  0  0  0  0  0
   -4.7096    1.1619    0.0000 O   0  0  0  0  0  0  0  0  0  0  0  0
  2  1  1  1
  2  3  1  0
  3  4  1  0
  4  5  1  0
  5  6  2  0
  6  7  1  0
  7  8  1  0
  7  9  2  0
  9 10  1  0
 10 11  1  0
 11 12  3  0
  2 13  1  0
 13 14  2  0
 13 15  1  0
 10  4  2  0
M  END
>  <rName>  (2424) 
Phe_2CN_4Cl

>  <PQ_SYMBOL>  (2424) 
Phe_2CN_4Cl

>  <FULL_NAME>  (2424) 
(S)-2-amino-3-(4-chloro-2-cyanophenyl)propanoic acid

>  <IUPAC_CONDENSED>  (2424) 
Phe(2-CN,4-Cl)

>  <IUPAC>  (2424) 
(2S)-2-amino-3-(4-chloro-2-(nitrilomethyl)phenyl)propanoic acid

>  <TYPE>  (2424) 
Backbone

>  <CLASS>  (2424) 
alpha

>  <ANALOG>  (2424) 
Phe

>  <MOL_WT>  (2424) 
224.647

>  <LOGP>  (2424) 
1.16608

>  <TPSA>  (2424) 
87.11

>  <POPULARITY>  (2424) 
2.6

>  <PROTECTED>  (2424) 
TRUE

>  <SMILES>  (2424) 
N[C@@H](Cc1(ccc(Cl)cc1C#N))C(=O)O

>  <INCHIKEY>  (2424) 
ZBRQGMCXRUTKAL-VIFPVBQESA-N

$$$$
Phe_2NO2_4OMe
     RDKit          2D

 17 17  0  0  0  0  0  0  0  0999 V2000
   -2.2707    2.1590    0.0000 N   0  0  0  0  0  0  0  0  0  0  0  0
   -2.5866    0.6926    0.0000 C   0  0  0  0  0  0  0  0  0  0  0  0
   -1.4747   -0.3141    0.0000 C   0  0  0  0  0  0  0  0  0  0  0  0
   -0.0468    0.1455    0.0000 C   0  0  0  0  0  0  0  0  0  0  0  0
    0.2691    1.6118    0.0000 C   0  0  0  0  0  0  0  0  0  0  0  0
    1.6969    2.0714    0.0000 C   0  0  0  0  0  0  0  0  0  0  0  0
    2.8089    1.0647    0.0000 C   0  0  0  0  0  0  0  0  0  0  0  0
    4.2367    1.5243    0.0000 O   0  0  0  0  0  0  0  0  0  0  0  0
    5.3487    0.5175    0.0000 C   0  0  0  0  0  0  0  0  0  0  0  0
    2.4930   -0.4017    0.0000 C   0  0  0  0  0  0  0  0  0  0  0  0
    1.0651   -0.8613    0.0000 C   0  0  0  0  0  0  0  0  0  0  0  0
    0.7492   -2.3276    0.0000 N   0  0  0  0  0  0  0  0  0  0  0  0
   -0.6786   -2.7872    0.0000 O   0  0  0  0  0  0  0  0  0  0  0  0
    1.8612   -3.3344    0.0000 O   0  0  0  0  0  0  0  0  0  0  0  0
   -4.0145    0.2330    0.0000 C   0  0  0  0  0  0  0  0  0  0  0  0
   -4.3304   -1.2333    0.0000 O   0  0  0  0  0  0  0  0  0  0  0  0
   -5.1264    1.2398    0.0000 O   0  0  0  0  0  0  0  0  0  0  0  0
  2  1  1  1
  2  3  1  0
  3  4  1  0
  4  5  1  0
  5  6  2  0
  6  7  1  0
  7  8  1  0
  8  9  1  0
  7 10  2  0
 10 11  1  0
 11 12  1  0
 12 13  2  0
 12 14  1  0
  2 15  1  0
 15 16  2  0
 15 17  1  0
 11  4  2  0
M  CHG  2  12   1  14  -1
M  END
>  <rName>  (2425) 
Phe_2NO2_4OMe

>  <PQ_SYMBOL>  (2425) 
Phe_2NO2_4OMe

>  <FULL_NAME>  (2425) 
(S)-2-amino-3-(4-methoxy-2-nitrophenyl)propanoic acid

>  <IUPAC_CONDENSED>  (2425) 
Phe(2-NO2,4-OMe)

>  <IUPAC>  (2425) 
(2S)-2-amino-3-(4-methoxy-2-nitrophenyl)propanoic acid

>  <TYPE>  (2425) 
Backbone

>  <CLASS>  (2425) 
alpha

>  <ANALOG>  (2425) 
Tyr

>  <MOL_WT>  (2425) 
240.21499999999997

>  <LOGP>  (2425) 
0.5578000000000001

>  <TPSA>  (2425) 
115.69000000000001

>  <POPULARITY>  (2425) 
3.3

>  <PROTECTED>  (2425) 
TRUE

>  <SMILES>  (2425) 
N[C@@H](Cc1(ccc(OC)cc1[N+](=O)[O-]))C(=O)O

>  <INCHIKEY>  (2425) 
MWEASQYLIDPNTB-QMMMGPOBSA-N

$$$$
Tic_68diI_7OH
     RDKit          2D

 16 17  0  0  0  0  0  0  0  0999 V2000
   -2.0401   -1.4748    0.0000 N   0  0  0  0  0  0  0  0  0  0  0  0
   -2.4319   -0.0269    0.0000 C   0  0  0  0  0  0  0  0  0  0  0  0
   -1.3739    1.0364    0.0000 C   0  0  0  0  0  0  0  0  0  0  0  0
    0.0759    0.6518    0.0000 C   0  0  0  0  0  0  0  0  0  0  0  0
    1.1339    1.7152    0.0000 C   0  0  0  0  0  0  0  0  0  0  0  0
    2.5838    1.3306    0.0000 C   0  0  0  0  0  0  0  0  0  0  0  0
    3.6418    2.3939    0.0000 I   0  0  0  0  0  0  0  0  0  0  0  0
    2.9756   -0.1174    0.0000 C   0  0  0  0  0  0  0  0  0  0  0  0
    4.4255   -0.5020    0.0000 O   0  0  0  0  0  0  0  0  0  0  0  0
    1.9176   -1.1807    0.0000 C   0  0  0  0  0  0  0  0  0  0  0  0
    2.3095   -2.6286    0.0000 I   0  0  0  0  0  0  0  0  0  0  0  0
    0.4678   -0.7961    0.0000 C   0  0  0  0  0  0  0  0  0  0  0  0
   -0.5902   -1.8594    0.0000 C   0  0  0  0  0  0  0  0  0  0  0  0
   -3.8818    0.3577    0.0000 C   0  0  0  0  0  0  0  0  0  0  0  0
   -4.9398   -0.7056    0.0000 O   0  0  0  0  0  0  0  0  0  0  0  0
   -4.2736    1.8056    0.0000 O   0  0  0  0  0  0  0  0  0  0  0  0
  1  2  1  0
  2  3  1  0
  3  4  1  0
  4  5  1  0
  5  6  2  0
  6  7  1  0
  6  8  1  0
  8  9  1  0
  8 10  2  0
 10 11  1  0
 10 12  1  0
 12 13  1  0
  2 14  1  6
 14 15  2  0
 14 16  1  0
 12  4  2  0
 13  1  1  0
M  END
>  <rName>  (2426) 
Tic_68diI_7OH

>  <PQ_SYMBOL>  (2426) 
Tic_68diI_7OH

>  <FULL_NAME>  (2426) 
(3S)-7-hydroxy-6,8-diiodo-1,2,3,4-tetrahydroisoquinoline-3-carboxylic acid

>  <IUPAC_CONDENSED>  (2426) 
Tic(6,8-diI,7-OH)

>  <IUPAC>  (2426) 
(4S)-9-hydroxy-8,10-diiodo-3-azabicyclo[4.4.0]deca-1(10),6,8-triene-4-carboxylic acid

>  <TYPE>  (2426) 
Backbone

>  <CLASS>  (2426) 
alpha

>  <ANALOG>  (2426) 
Pro

>  <MOL_WT>  (2426) 
444.9940000000001

>  <LOGP>  (2426) 
1.7003000000000001

>  <TPSA>  (2426) 
69.56

>  <POPULARITY>  (2426) 
5.4

>  <PROTECTED>  (2426) 
TRUE

>  <SMILES>  (2426) 
N2[C@@H](Cc1(cc(I)c(O)c(I)c1C2))C(=O)O

>  <INCHIKEY>  (2426) 
FGHLNNQVWGFFNZ-ZETCQYMHSA-N

$$$$
Lys_MeOPEG2acetyl
     RDKit          2D

 21 20  0  0  0  0  0  0  0  0999 V2000
  -11.9395   -0.4457    0.0000 C   0  0  0  0  0  0  0  0  0  0  0  0
  -10.6393    0.3023    0.0000 O   0  0  0  0  0  0  0  0  0  0  0  0
   -9.3414   -0.4498    0.0000 C   0  0  0  0  0  0  0  0  0  0  0  0
   -8.0412    0.2982    0.0000 C   0  0  0  0  0  0  0  0  0  0  0  0
   -6.7433   -0.4538    0.0000 O   0  0  0  0  0  0  0  0  0  0  0  0
   -5.4431    0.2942    0.0000 C   0  0  0  0  0  0  0  0  0  0  0  0
   -4.1453   -0.4578    0.0000 C   0  0  0  0  0  0  0  0  0  0  0  0
   -2.8451    0.2901    0.0000 O   0  0  0  0  0  0  0  0  0  0  0  0
   -1.5472   -0.4619    0.0000 C   0  0  0  0  0  0  0  0  0  0  0  0
   -0.2470    0.2861    0.0000 C   0  0  0  0  0  0  0  0  0  0  0  0
   -0.2447    1.7861    0.0000 O   0  0  0  0  0  0  0  0  0  0  0  0
    1.0509   -0.4659    0.0000 N   0  0  0  0  0  0  0  0  0  0  0  0
    2.3511    0.2821    0.0000 C   0  0  0  0  0  0  0  0  0  0  0  0
    3.6490   -0.4700    0.0000 C   0  0  0  0  0  0  0  0  0  0  0  0
    4.9492    0.2780    0.0000 C   0  0  0  0  0  0  0  0  0  0  0  0
    6.2470   -0.4740    0.0000 C   0  0  0  0  0  0  0  0  0  0  0  0
    7.5472    0.2740    0.0000 C   0  0  0  0  0  0  0  0  0  0  0  0
    7.5496    1.7740    0.0000 N   0  0  0  0  0  0  0  0  0  0  0  0
    8.8451   -0.4780    0.0000 C   0  0  0  0  0  0  0  0  0  0  0  0
    8.8428   -1.9780    0.0000 O   0  0  0  0  0  0  0  0  0  0  0  0
   10.1453    0.2699    0.0000 O   0  0  0  0  0  0  0  0  0  0  0  0
  1  2  1  0
  2  3  1  0
  3  4  1  0
  4  5  1  0
  5  6  1  0
  6  7  1  0
  7  8  1  0
  8  9  1  0
  9 10  1  0
 10 11  2  0
 10 12  1  0
 12 13  1  0
 13 14  1  0
 14 15  1  0
 15 16  1  0
 16 17  1  0
 17 18  1  6
 17 19  1  0
 19 20  2  0
 19 21  1  0
M  END
>  <rName>  (2427) 
Lys_MeOPEG2acetyl

>  <PQ_SYMBOL>  (2427) 
Lys_MeOPEG2acetyl

>  <FULL_NAME>  (2427) 
(S)-16-amino-10-oxo-2,5,8-trioxa-11-azaheptadecan-17-oic acid

>  <IUPAC_CONDENSED>  (2427) 
Lys(MeO-PEG2-acetyl)

>  <IUPAC>  (2427) 
(2S)-2-amino-6-(((2-((2-methoxyethyl)oxy)ethyl)oxy)methylcarbonylamino)hexanoic acid

>  <TYPE>  (2427) 
Backbone

>  <CLASS>  (2427) 
alpha

>  <ANALOG>  (2427) 
Lys

>  <MOL_WT>  (2427) 
306.35900000000004

>  <LOGP>  (2427) 
-0.6355999999999971

>  <TPSA>  (2427) 
120.11

>  <POPULARITY>  (2427) 
3.3

>  <PROTECTED>  (2427) 
TRUE

>  <SMILES>  (2427) 
COCCOCCOCC(=O)NCCCC[C@H](N)C(=O)O

>  <INCHIKEY>  (2427) 
VMYYNDPDICUYSO-NSHDSACASA-N

$$$$
Met_MeNH2
     RDKit          2D

 17 16  0  0  0  0  0  0  0  0999 V2000
    4.7116   -1.9182    0.0000 N   0  0  0  0  0  0  0  0  0  0  0  0
    4.7323   -0.4183    0.0000 C   0  0  0  0  0  0  0  0  0  0  0  0
    3.4438    0.3496    0.0000 C   0  0  0  0  0  0  0  0  0  0  0  0
    2.1345   -0.3824    0.0000 C   0  0  0  0  0  0  0  0  0  0  0  0
    0.8460    0.3854    0.0000 S   0  0  0  0  0  0  0  0  0  0  0  0
   -0.4633   -0.3466    0.0000 C   0  0  0  0  0  0  0  0  0  0  0  0
   -1.7519    0.4213    0.0000 C   0  0  0  0  0  0  0  0  0  0  0  0
   -1.7312    1.9211    0.0000 N   0  0  0  0  0  0  0  0  0  0  0  0
   -3.0611   -0.3107    0.0000 C   0  0  0  0  0  0  0  0  0  0  0  0
   -3.0818   -1.8106    0.0000 O   0  0  0  0  0  0  0  0  0  0  0  0
   -4.3497    0.4571    0.0000 O   0  0  0  0  0  0  0  0  0  0  0  0
   -5.6590   -0.2749    0.0000 C   0  0  0  0  0  0  0  0  0  0  0  0
   -6.9475    0.4930    0.0000 C   0  0  0  0  0  0  0  0  0  0  0  0
   -8.2568   -0.2390    0.0000 C   0  0  0  0  0  0  0  0  0  0  0  0
    6.0416    0.3137    0.0000 C   0  0  0  0  0  0  0  0  0  0  0  0
    6.0623    1.8136    0.0000 O   0  0  0  0  0  0  0  0  0  0  0  0
    7.3302   -0.4542    0.0000 O   0  0  0  0  0  0  0  0  0  0  0  0
  2  1  1  1
  2  3  1  0
  3  4  1  0
  4  5  1  0
  5  6  1  0
  6  7  1  0
  7  8  1  1
  7  9  1  0
  9 10  2  0
  9 11  1  0
 11 12  1  0
 12 13  1  0
 13 14  2  0
  2 15  1  0
 15 16  2  0
 15 17  1  0
M  END
>  <rName>  (2428) 
Met_MeNH2

>  <PQ_SYMBOL>  (2428) 
Met_MeNH2

>  <FULL_NAME>  (2428) 
S-((R)-3-(allyloxy)-2-amino-3-oxopropyl)-L-homocysteine

>  <IUPAC_CONDENSED>  (2428) 
Met(MeNH2)

>  <IUPAC>  (2428) 
(2S)-2-amino-4-(((2R)-2-amino-3-oxo-3-((prop-2-en-1-yl)oxy)propyl)sulfanyl)butanoic acid

>  <TYPE>  (2428) 
Backbone

>  <CLASS>  (2428) 
alpha

>  <ANALOG>  (2428) 
Met

>  <MOL_WT>  (2428) 
262.3309999999999

>  <LOGP>  (2428) 
-0.4218999999999989

>  <TPSA>  (2428) 
115.64

>  <POPULARITY>  (2428) 
2.7

>  <PROTECTED>  (2428) 
TRUE

>  <SMILES>  (2428) 
N[C@@H](CCSC[C@H](N)C(=O)OCC=C)C(=O)O

>  <INCHIKEY>  (2428) 
NVESXHCHBASTJR-YUMQZZPRSA-N

$$$$
Phe_4CF2POOEt2
     RDKit          2D

 23 23  0  0  0  0  0  0  0  0999 V2000
   -4.1123    1.7868    0.0000 N   0  0  0  0  0  0  0  0  0  0  0  0
   -4.4081    0.3163    0.0000 C   0  0  0  0  0  0  0  0  0  0  0  0
   -3.2824   -0.6751    0.0000 C   0  0  0  0  0  0  0  0  0  0  0  0
   -1.8610   -0.1960    0.0000 C   0  0  0  0  0  0  0  0  0  0  0  0
   -1.5652    1.2746    0.0000 C   0  0  0  0  0  0  0  0  0  0  0  0
   -0.1438    1.7538    0.0000 C   0  0  0  0  0  0  0  0  0  0  0  0
    0.9818    0.7624    0.0000 C   0  0  0  0  0  0  0  0  0  0  0  0
    0.6861   -0.7082    0.0000 C   0  0  0  0  0  0  0  0  0  0  0  0
   -0.7353   -1.1874    0.0000 C   0  0  0  0  0  0  0  0  0  0  0  0
    2.4032    1.2415    0.0000 C   0  0  0  0  0  0  0  0  0  0  0  0
    3.8247    1.7207    0.0000 F   0  0  0  0  0  0  0  0  0  0  0  0
    1.9241    2.6629    0.0000 F   0  0  0  0  0  0  0  0  0  0  0  0
    2.8824   -0.1799    0.0000 P   0  0  0  0  0  0  0  0  0  0  0  0
    3.3616   -1.6013    0.0000 O   0  0  0  0  0  0  0  0  0  0  0  0
    1.4610   -0.6591    0.0000 O   0  0  0  0  0  0  0  0  0  0  0  0
    1.1652   -2.1296    0.0000 C   0  0  0  0  0  0  0  0  0  0  0  0
   -0.2562   -2.6088    0.0000 C   0  0  0  0  0  0  0  0  0  0  0  0
    4.3038    0.2993    0.0000 O   0  0  0  0  0  0  0  0  0  0  0  0
    5.4295   -0.6922    0.0000 C   0  0  0  0  0  0  0  0  0  0  0  0
    6.8509   -0.2130    0.0000 C   0  0  0  0  0  0  0  0  0  0  0  0
   -5.8295   -0.1629    0.0000 C   0  0  0  0  0  0  0  0  0  0  0  0
   -6.1252   -1.6334    0.0000 O   0  0  0  0  0  0  0  0  0  0  0  0
   -6.9551    0.8285    0.0000 O   0  0  0  0  0  0  0  0  0  0  0  0
  2  1  1  1
  2  3  1  0
  3  4  1  0
  4  5  1  0
  5  6  2  0
  6  7  1  0
  7  8  2  0
  8  9  1  0
  7 10  1  0
 10 11  1  0
 10 12  1  0
 10 13  1  0
 13 14  2  0
 13 15  1  0
 15 16  1  0
 16 17  1  0
 13 18  1  0
 18 19  1  0
 19 20  1  0
  2 21  1  0
 21 22  2  0
 21 23  1  0
  9  4  2  0
M  END
>  <rName>  (2429) 
Phe_4CF2POOEt2

>  <PQ_SYMBOL>  (2429) 
Phe_4CF2POOEt2

>  <FULL_NAME>  (2429) 
(S)-2-amino-3-(4-((diethoxyphosphoryl)difluoromethyl)phenyl)propanoic acid

>  <IUPAC_CONDENSED>  (2429) 
Phe(4-CF2PO(OEt)2)

>  <IUPAC>  (2429) 
(2S)-2-amino-3-(4-((diethoxyphosphoryl)difluoromethyl)phenyl)propanoic acid

>  <TYPE>  (2429) 
Backbone

>  <CLASS>  (2429) 
alpha

>  <ANALOG>  (2429) 
Phe

>  <MOL_WT>  (2429) 
351.28600000000006

>  <LOGP>  (2429) 
2.9564000000000012

>  <TPSA>  (2429) 
98.85000000000001

>  <POPULARITY>  (2429) 
3.6

>  <PROTECTED>  (2429) 
TRUE

>  <SMILES>  (2429) 
N[C@@H](Cc1(ccc(cc1)C(F)(F)P(=O)(OCC)OCC))C(=O)O

>  <INCHIKEY>  (2429) 
SNSFIWGJZZYFDH-LBPRGKRZSA-N

$$$$
D-aMehPhe
     RDKit          2D

 14 14  0  0  0  0  0  0  0  0999 V2000
   -2.7092    2.1394    0.0000 N   0  0  0  0  0  0  0  0  0  0  0  0
   -2.5158    0.6520    0.0000 C   0  0  0  0  0  0  0  0  0  0  0  0
   -4.0033    0.4585    0.0000 C   0  0  0  0  0  0  0  0  0  0  0  0
   -1.0283    0.8454    0.0000 C   0  0  0  0  0  0  0  0  0  0  0  0
   -0.1171   -0.3461    0.0000 C   0  0  0  0  0  0  0  0  0  0  0  0
    1.3704   -0.1526    0.0000 C   0  0  0  0  0  0  0  0  0  0  0  0
    1.9466    1.2323    0.0000 C   0  0  0  0  0  0  0  0  0  0  0  0
    3.4341    1.4257    0.0000 C   0  0  0  0  0  0  0  0  0  0  0  0
    4.3454    0.2342    0.0000 C   0  0  0  0  0  0  0  0  0  0  0  0
    3.7691   -1.1507    0.0000 C   0  0  0  0  0  0  0  0  0  0  0  0
    2.2817   -1.3441    0.0000 C   0  0  0  0  0  0  0  0  0  0  0  0
   -2.3224   -0.8355    0.0000 C   0  0  0  0  0  0  0  0  0  0  0  0
   -0.9375   -1.4117    0.0000 O   0  0  0  0  0  0  0  0  0  0  0  0
   -3.5138   -1.7468    0.0000 O   0  0  0  0  0  0  0  0  0  0  0  0
  1  2  1  0
  2  3  1  1
  2  4  1  0
  4  5  1  0
  5  6  1  0
  6  7  2  0
  7  8  1  0
  8  9  2  0
  9 10  1  0
 10 11  2  0
  2 12  1  0
 12 13  2  0
 12 14  1  0
 11  6  1  0
M  END
>  <rName>  (2430) 
D-aMehPhe

>  <PQ_SYMBOL>  (2430) 
D-aMehPhe

>  <FULL_NAME>  (2430) 
(R)-2-amino-2-methyl-4-phenylbutanoic acid

>  <IUPAC_CONDENSED>  (2430) 
D-aMehPhe

>  <IUPAC>  (2430) 
(2R)-2-amino-2-methyl-4-phenylbutanoic acid

>  <TYPE>  (2430) 
Backbone

>  <CLASS>  (2430) 
alpha

>  <ANALOG>  (2430) 
Phe

>  <MOL_WT>  (2430) 
193.24599999999998

>  <LOGP>  (2430) 
1.4212

>  <TPSA>  (2430) 
63.32000000000001

>  <POPULARITY>  (2430) 
7.5

>  <PROTECTED>  (2430) 
TRUE

>  <SMILES>  (2430) 
N[C@](C)(CCc1(ccccc1))C(=O)O

>  <INCHIKEY>  (2430) 
PHZKTNAAGCQMAO-LLVKDONJSA-N

$$$$
D-Ala_7OMe2oxochromenyl
     RDKit          2D

 19 20  0  0  0  0  0  0  0  0999 V2000
   -3.6022   -1.1766    0.0000 N   0  0  0  0  0  0  0  0  0  0  0  0
   -3.2926    0.2911    0.0000 C   0  0  0  0  0  0  0  0  0  0  0  0
   -1.8667    0.7568    0.0000 C   0  0  0  0  0  0  0  0  0  0  0  0
   -0.7505   -0.2451    0.0000 C   0  0  0  0  0  0  0  0  0  0  0  0
   -1.0600   -1.7128    0.0000 C   0  0  0  0  0  0  0  0  0  0  0  0
    0.0562   -2.7148    0.0000 C   0  0  0  0  0  0  0  0  0  0  0  0
   -0.2533   -4.1825    0.0000 O   0  0  0  0  0  0  0  0  0  0  0  0
    1.4821   -2.2490    0.0000 O   0  0  0  0  0  0  0  0  0  0  0  0
    1.7917   -0.7813    0.0000 C   0  0  0  0  0  0  0  0  0  0  0  0
    3.2175   -0.3156    0.0000 C   0  0  0  0  0  0  0  0  0  0  0  0
    3.5271    1.1521    0.0000 C   0  0  0  0  0  0  0  0  0  0  0  0
    4.9530    1.6179    0.0000 O   0  0  0  0  0  0  0  0  0  0  0  0
    6.0693    0.6159    0.0000 C   0  0  0  0  0  0  0  0  0  0  0  0
    2.4109    2.1541    0.0000 C   0  0  0  0  0  0  0  0  0  0  0  0
    0.9850    1.6883    0.0000 C   0  0  0  0  0  0  0  0  0  0  0  0
    0.6754    0.2206    0.0000 C   0  0  0  0  0  0  0  0  0  0  0  0
   -4.4089    1.2930    0.0000 C   0  0  0  0  0  0  0  0  0  0  0  0
   -4.0993    2.7607    0.0000 O   0  0  0  0  0  0  0  0  0  0  0  0
   -5.8347    0.8273    0.0000 O   0  0  0  0  0  0  0  0  0  0  0  0
  2  1  1  1
  2  3  1  0
  3  4  1  0
  4  5  2  0
  5  6  1  0
  6  7  2  0
  6  8  1  0
  8  9  1  0
  9 10  1  0
 10 11  2  0
 11 12  1  0
 12 13  1  0
 11 14  1  0
 14 15  2  0
 15 16  1  0
  2 17  1  0
 17 18  2  0
 17 19  1  0
 16  4  1  0
 16  9  2  0
M  END
>  <rName>  (2431) 
D-Ala_7OMe2oxochromenyl

>  <PQ_SYMBOL>  (2431) 
D-Ala_7OMe2oxochromenyl

>  <FULL_NAME>  (2431) 
(2R)-2-amino-3-(7-methoxy-2-oxochromen-4-yl)propanoic acid

>  <IUPAC_CONDENSED>  (2431) 
D-Ala(7-OMe-2-oxochromenyl)

>  <IUPAC>  (2431) 
(2R)-2-amino-3-(9-methoxy-3-oxo-2-oxabicyclo[4.4.0]deca-1(10),4,6,8-tetraen-5-yl)propanoic acid

>  <TYPE>  (2431) 
Backbone

>  <CLASS>  (2431) 
alpha

>  <ANALOG>  (2431) 
Tyr

>  <MOL_WT>  (2431) 
263.24899999999997

>  <LOGP>  (2431) 
0.7560000000000002

>  <TPSA>  (2431) 
102.76

>  <POPULARITY>  (2431) 
3.2

>  <PROTECTED>  (2431) 
TRUE

>  <SMILES>  (2431) 
N[C@H](Cc1(cc(=O)oc2(cc(OC)ccc12)))C(=O)O

>  <INCHIKEY>  (2431) 
IOHUIWNMQPWOAX-SNVBAGLBSA-N

$$$$
Aad-Oallyl
     RDKit          2D

 14 13  0  0  0  0  0  0  0  0999 V2000
   -0.1751    1.7810    0.0000 N   0  0  0  0  0  0  0  0  0  0  0  0
   -0.2623    0.2836    0.0000 C   0  0  0  0  0  0  0  0  0  0  0  0
   -1.6028   -0.3896    0.0000 C   0  0  0  0  0  0  0  0  0  0  0  0
   -1.6900   -1.8871    0.0000 O   0  0  0  0  0  0  0  0  0  0  0  0
   -2.8560    0.4346    0.0000 O   0  0  0  0  0  0  0  0  0  0  0  0
   -4.1964   -0.2386    0.0000 C   0  0  0  0  0  0  0  0  0  0  0  0
   -5.4497    0.5856    0.0000 C   0  0  0  0  0  0  0  0  0  0  0  0
   -6.7901   -0.0876    0.0000 C   0  0  0  0  0  0  0  0  0  0  0  0
    0.9909   -0.5407    0.0000 C   0  0  0  0  0  0  0  0  0  0  0  0
    2.3314    0.1326    0.0000 C   0  0  0  0  0  0  0  0  0  0  0  0
    3.5846   -0.6917    0.0000 C   0  0  0  0  0  0  0  0  0  0  0  0
    4.9250   -0.0185    0.0000 C   0  0  0  0  0  0  0  0  0  0  0  0
    5.0122    1.4790    0.0000 O   0  0  0  0  0  0  0  0  0  0  0  0
    6.1783   -0.8427    0.0000 O   0  0  0  0  0  0  0  0  0  0  0  0
  2  1  1  1
  2  3  1  0
  3  4  2  0
  3  5  1  0
  5  6  1  0
  6  7  1  0
  7  8  2  0
  2  9  1  0
  9 10  1  0
 10 11  1  0
 11 12  1  0
 12 13  2  0
 12 14  1  0
M  END
>  <rName>  (2432) 
Aad-Oallyl

>  <PQ_SYMBOL>  (2432) 
Aad-Oallyl

>  <FULL_NAME>  (2432) 
(5S)-5-amino-6-oxo-6-prop-2-enoxyhexanoic acid

>  <IUPAC_CONDENSED>  (2432) 
Aad-Oallyl

>  <IUPAC>  (2432) 
(5S)-5-amino-5-(((prop-2-en-1-yl)oxy)carbonyl)pentanoic acid

>  <TYPE>  (2432) 
Backbone

>  <CLASS>  (2432) 
delta

>  <ANALOG>  (2432) 
X

>  <MOL_WT>  (2432) 
201.22199999999995

>  <LOGP>  (2432) 
0.29779999999999957

>  <TPSA>  (2432) 
89.62000000000002

>  <POPULARITY>  (2432) 
3.2

>  <PROTECTED>  (2432) 
TRUE

>  <SMILES>  (2432) 
N[C@H](C(=O)OCC=C)CCCC(=O)O

>  <INCHIKEY>  (2432) 
JMRZCPVPMQASQZ-ZETCQYMHSA-N

$$$$
Lys_decanoyl
     RDKit          2D

 21 20  0  0  0  0  0  0  0  0999 V2000
  -11.9395   -0.4457    0.0000 C   0  0  0  0  0  0  0  0  0  0  0  0
  -10.6393    0.3023    0.0000 C   0  0  0  0  0  0  0  0  0  0  0  0
   -9.3414   -0.4498    0.0000 C   0  0  0  0  0  0  0  0  0  0  0  0
   -8.0412    0.2982    0.0000 C   0  0  0  0  0  0  0  0  0  0  0  0
   -6.7433   -0.4538    0.0000 C   0  0  0  0  0  0  0  0  0  0  0  0
   -5.4431    0.2942    0.0000 C   0  0  0  0  0  0  0  0  0  0  0  0
   -4.1453   -0.4578    0.0000 C   0  0  0  0  0  0  0  0  0  0  0  0
   -2.8451    0.2901    0.0000 C   0  0  0  0  0  0  0  0  0  0  0  0
   -1.5472   -0.4619    0.0000 C   0  0  0  0  0  0  0  0  0  0  0  0
   -0.2470    0.2861    0.0000 C   0  0  0  0  0  0  0  0  0  0  0  0
   -0.2447    1.7861    0.0000 O   0  0  0  0  0  0  0  0  0  0  0  0
    1.0509   -0.4659    0.0000 N   0  0  0  0  0  0  0  0  0  0  0  0
    2.3511    0.2821    0.0000 C   0  0  0  0  0  0  0  0  0  0  0  0
    3.6490   -0.4700    0.0000 C   0  0  0  0  0  0  0  0  0  0  0  0
    4.9492    0.2780    0.0000 C   0  0  0  0  0  0  0  0  0  0  0  0
    6.2470   -0.4740    0.0000 C   0  0  0  0  0  0  0  0  0  0  0  0
    7.5472    0.2740    0.0000 C   0  0  0  0  0  0  0  0  0  0  0  0
    7.5496    1.7740    0.0000 N   0  0  0  0  0  0  0  0  0  0  0  0
    8.8451   -0.4780    0.0000 C   0  0  0  0  0  0  0  0  0  0  0  0
    8.8428   -1.9780    0.0000 O   0  0  0  0  0  0  0  0  0  0  0  0
   10.1453    0.2699    0.0000 O   0  0  0  0  0  0  0  0  0  0  0  0
  1  2  1  0
  2  3  1  0
  3  4  1  0
  4  5  1  0
  5  6  1  0
  6  7  1  0
  7  8  1  0
  8  9  1  0
  9 10  1  0
 10 11  2  0
 10 12  1  0
 12 13  1  0
 13 14  1  0
 14 15  1  0
 15 16  1  0
 16 17  1  0
 17 18  1  6
 17 19  1  0
 19 20  2  0
 19 21  1  0
M  END
>  <rName>  (2433) 
Lys_decanoyl

>  <PQ_SYMBOL>  (2433) 
Lys_decanoyl

>  <FULL_NAME>  (2433) 
N6-decanoyl-L-lysine

>  <IUPAC_CONDENSED>  (2433) 
Lys(decanoyl)

>  <IUPAC>  (2433) 
(2S)-2-amino-6-nonylcarbonylaminohexanoic acid

>  <TYPE>  (2433) 
Backbone

>  <CLASS>  (2433) 
alpha

>  <ANALOG>  (2433) 
Lys

>  <MOL_WT>  (2433) 
300.443

>  <LOGP>  (2433) 
2.8255

>  <TPSA>  (2433) 
92.42

>  <POPULARITY>  (2433) 
6.9

>  <PROTECTED>  (2433) 
TRUE

>  <SMILES>  (2433) 
CCCCCCCCCC(=O)NCCCC[C@H](N)C(=O)O

>  <INCHIKEY>  (2433) 
JVGQYGXDASKPJW-AWEZNQCLSA-N

$$$$
4Pal_2CF3
     RDKit          2D

 16 16  0  0  0  0  0  0  0  0999 V2000
   -2.9171    1.6042    0.0000 N   0  0  0  0  0  0  0  0  0  0  0  0
   -2.9225    0.1042    0.0000 C   0  0  0  0  0  0  0  0  0  0  0  0
   -1.6261   -0.6504    0.0000 C   0  0  0  0  0  0  0  0  0  0  0  0
   -0.3244    0.0949    0.0000 C   0  0  0  0  0  0  0  0  0  0  0  0
   -0.3190    1.5949    0.0000 C   0  0  0  0  0  0  0  0  0  0  0  0
    0.9827    2.3402    0.0000 C   0  0  0  0  0  0  0  0  0  0  0  0
    2.2790    1.5856    0.0000 N   0  0  0  0  0  0  0  0  0  0  0  0
    2.2736    0.0856    0.0000 C   0  0  0  0  0  0  0  0  0  0  0  0
    0.9719   -0.6597    0.0000 C   0  0  0  0  0  0  0  0  0  0  0  0
    3.5700   -0.6691    0.0000 C   0  0  0  0  0  0  0  0  0  0  0  0
    4.8663   -1.4237    0.0000 F   0  0  0  0  0  0  0  0  0  0  0  0
    2.8153   -1.9654    0.0000 F   0  0  0  0  0  0  0  0  0  0  0  0
    4.3246    0.6273    0.0000 F   0  0  0  0  0  0  0  0  0  0  0  0
   -4.2242   -0.6411    0.0000 C   0  0  0  0  0  0  0  0  0  0  0  0
   -4.2296   -2.1411    0.0000 O   0  0  0  0  0  0  0  0  0  0  0  0
   -5.5205    0.1136    0.0000 O   0  0  0  0  0  0  0  0  0  0  0  0
  2  1  1  1
  2  3  1  0
  3  4  1  0
  4  5  1  0
  5  6  2  0
  6  7  1  0
  7  8  2  0
  8  9  1  0
  8 10  1  0
 10 11  1  0
 10 12  1  0
 10 13  1  0
  2 14  1  0
 14 15  2  0
 14 16  1  0
  9  4  2  0
M  END
>  <rName>  (2434) 
4Pal_2CF3

>  <PQ_SYMBOL>  (2434) 
4Pal_2CF3

>  <FULL_NAME>  (2434) 
(2S)-2-amino-3-[2-(trifluoromethyl)pyridin-4-yl]propanoic acid

>  <IUPAC_CONDENSED>  (2434) 
4Pal(2-CF3)

>  <IUPAC>  (2434) 
(2S)-2-amino-3-(2-(trifluoromethyl)pyridin-4-yl)propanoic acid

>  <TYPE>  (2434) 
Backbone

>  <CLASS>  (2434) 
alpha

>  <ANALOG>  (2434) 
Phe

>  <MOL_WT>  (2434) 
234.17699999999994

>  <LOGP>  (2434) 
1.0548

>  <TPSA>  (2434) 
76.21

>  <POPULARITY>  (2434) 
2.8

>  <PROTECTED>  (2434) 
TRUE

>  <SMILES>  (2434) 
N[C@@H](Cc1(ccnc(c1)C(F)(F)F))C(=O)O

>  <INCHIKEY>  (2434) 
ZYSHLPWHTPDRSS-LURJTMIESA-N

$$$$
4Pal_2OMe_5Me
     RDKit          2D

 15 15  0  0  0  0  0  0  0  0999 V2000
   -1.4698    1.8520    0.0000 N   0  0  0  0  0  0  0  0  0  0  0  0
   -2.1710    0.5260    0.0000 C   0  0  0  0  0  0  0  0  0  0  0  0
   -1.3733   -0.7443    0.0000 C   0  0  0  0  0  0  0  0  0  0  0  0
    0.1257   -0.6886    0.0000 C   0  0  0  0  0  0  0  0  0  0  0  0
    0.8269    0.6374    0.0000 C   0  0  0  0  0  0  0  0  0  0  0  0
    2.3259    0.6931    0.0000 C   0  0  0  0  0  0  0  0  0  0  0  0
    3.0271    2.0191    0.0000 O   0  0  0  0  0  0  0  0  0  0  0  0
    4.5261    2.0748    0.0000 C   0  0  0  0  0  0  0  0  0  0  0  0
    3.1236   -0.5772    0.0000 N   0  0  0  0  0  0  0  0  0  0  0  0
    2.4223   -1.9032    0.0000 C   0  0  0  0  0  0  0  0  0  0  0  0
    0.9234   -1.9589    0.0000 C   0  0  0  0  0  0  0  0  0  0  0  0
    0.2221   -3.2849    0.0000 C   0  0  0  0  0  0  0  0  0  0  0  0
   -3.6700    0.4703    0.0000 C   0  0  0  0  0  0  0  0  0  0  0  0
   -4.3712   -0.8557    0.0000 O   0  0  0  0  0  0  0  0  0  0  0  0
   -4.4677    1.7405    0.0000 O   0  0  0  0  0  0  0  0  0  0  0  0
  2  1  1  1
  2  3  1  0
  3  4  1  0
  4  5  1  0
  5  6  2  0
  6  7  1  0
  7  8  1  0
  6  9  1  0
  9 10  2  0
 10 11  1  0
 11 12  1  0
  2 13  1  0
 13 14  2  0
 13 15  1  0
 11  4  2  0
M  END
>  <rName>  (2435) 
4Pal_2OMe_5Me

>  <PQ_SYMBOL>  (2435) 
4Pal_2OMe_5Me

>  <FULL_NAME>  (2435) 
(2S)-2-amino-3-(2-methoxy-5-methylpyridin-4-yl)propanoic acid

>  <IUPAC_CONDENSED>  (2435) 
4Pal(2-OMe,5-Me)

>  <IUPAC>  (2435) 
(2S)-2-amino-3-(2-methoxy-5-methylpyridin-4-yl)propanoic acid

>  <TYPE>  (2435) 
Backbone

>  <CLASS>  (2435) 
alpha

>  <ANALOG>  (2435) 
Phe

>  <MOL_WT>  (2435) 
210.23299999999998

>  <LOGP>  (2435) 
0.3530199999999996

>  <TPSA>  (2435) 
85.44000000000001

>  <POPULARITY>  (2435) 
2.5

>  <PROTECTED>  (2435) 
TRUE

>  <SMILES>  (2435) 
N[C@@H](Cc1(cc(OC)ncc1C))C(=O)O

>  <INCHIKEY>  (2435) 
CAFNRZDZEDVHOH-QMMMGPOBSA-N

$$$$
D-Pro_4Ramino
     RDKit          2D

  9  9  0  0  0  0  0  0  0  0999 V2000
   -0.1792   -1.4541    0.0000 N   0  0  0  0  0  0  0  0  0  0  0  0
    0.4598   -0.0969    0.0000 C   0  0  0  0  0  0  0  0  0  0  0  0
   -0.6334    0.9301    0.0000 C   0  0  0  0  0  0  0  0  0  0  0  0
   -1.9481    0.2077    0.0000 C   0  0  0  0  0  0  0  0  0  0  0  0
   -3.3052    0.8467    0.0000 N   0  0  0  0  0  0  0  0  0  0  0  0
   -1.6673   -1.2657    0.0000 C   0  0  0  0  0  0  0  0  0  0  0  0
    1.9333    0.1838    0.0000 C   0  0  0  0  0  0  0  0  0  0  0  0
    2.4269    1.6003    0.0000 O   0  0  0  0  0  0  0  0  0  0  0  0
    2.9132   -0.9519    0.0000 O   0  0  0  0  0  0  0  0  0  0  0  0
  1  2  1  0
  2  3  1  0
  3  4  1  0
  4  5  1  6
  4  6  1  0
  2  7  1  6
  7  8  2  0
  7  9  1  0
  6  1  1  0
M  END
>  <rName>  (2436) 
D-Pro_4Ramino

>  <PQ_SYMBOL>  (2436) 
D-Pro_4Ramino

>  <FULL_NAME>  (2436) 
(2R,4R)-4-aminopyrrolidine-2-carboxylic acid

>  <IUPAC_CONDENSED>  (2436) 
D-Pro(4R-amino)

>  <IUPAC>  (2436) 
(2R,4R)-4-aminopyrrolidine-2-carboxylic acid

>  <TYPE>  (2436) 
Backbone

>  <CLASS>  (2436) 
alpha

>  <ANALOG>  (2436) 
Pro

>  <MOL_WT>  (2436) 
130.14700000000002

>  <LOGP>  (2436) 
-1.2397999999999993

>  <TPSA>  (2436) 
75.35

>  <POPULARITY>  (2436) 
8.2

>  <PROTECTED>  (2436) 
TRUE

>  <SMILES>  (2436) 
N1[C@H](C[C@@H](N)C1)C(=O)O

>  <INCHIKEY>  (2436) 
SHINASQYHDCLEU-QWWZWVQMSA-N

$$$$
Nva_ONH2
     RDKit          2D

 10  9  0  0  0  0  0  0  0  0999 V2000
   -1.4166    1.8843    0.0000 N   0  0  0  0  0  0  0  0  0  0  0  0
   -1.4265    0.3844    0.0000 C   0  0  0  0  0  0  0  0  0  0  0  0
   -0.1324   -0.3741    0.0000 C   0  0  0  0  0  0  0  0  0  0  0  0
    1.1716    0.3673    0.0000 C   0  0  0  0  0  0  0  0  0  0  0  0
    2.4657   -0.3912    0.0000 C   0  0  0  0  0  0  0  0  0  0  0  0
    3.7696    0.3503    0.0000 O   0  0  0  0  0  0  0  0  0  0  0  0
    5.0637   -0.4082    0.0000 N   0  0  0  0  0  0  0  0  0  0  0  0
   -2.7304   -0.3571    0.0000 C   0  0  0  0  0  0  0  0  0  0  0  0
   -2.7402   -1.8571    0.0000 O   0  0  0  0  0  0  0  0  0  0  0  0
   -4.0245    0.4014    0.0000 O   0  0  0  0  0  0  0  0  0  0  0  0
  2  1  1  1
  2  3  1  0
  3  4  1  0
  4  5  1  0
  5  6  1  0
  6  7  1  0
  2  8  1  0
  8  9  2  0
  8 10  1  0
M  END
>  <rName>  (2437) 
Nva_ONH2

>  <PQ_SYMBOL>  (2437) 
Nva_ONH2

>  <FULL_NAME>  (2437) 
(2S)-2-amino-5-aminooxypentanoic acid

>  <IUPAC_CONDENSED>  (2437) 
Nva(ONH2)

>  <IUPAC>  (2437) 
(2S)-2-amino-5-(aminooxy)pentanoic acid

>  <TYPE>  (2437) 
Backbone

>  <CLASS>  (2437) 
alpha

>  <ANALOG>  (2437) 
X

>  <MOL_WT>  (2437) 
148.162

>  <LOGP>  (2437) 
-0.9311999999999994

>  <TPSA>  (2437) 
98.57000000000001

>  <POPULARITY>  (2437) 
5.3

>  <PROTECTED>  (2437) 
TRUE

>  <SMILES>  (2437) 
N[C@@H](CCCON)C(=O)O

>  <INCHIKEY>  (2437) 
GFOZTGXHZSBIOB-BYPYZUCNSA-N

$$$$
Orn_NH2
     RDKit          2D

 10  9  0  0  0  0  0  0  0  0999 V2000
   -1.4166    1.8843    0.0000 N   0  0  0  0  0  0  0  0  0  0  0  0
   -1.4265    0.3844    0.0000 C   0  0  0  0  0  0  0  0  0  0  0  0
   -0.1324   -0.3741    0.0000 C   0  0  0  0  0  0  0  0  0  0  0  0
    1.1716    0.3673    0.0000 C   0  0  0  0  0  0  0  0  0  0  0  0
    2.4657   -0.3912    0.0000 C   0  0  0  0  0  0  0  0  0  0  0  0
    3.7696    0.3503    0.0000 N   0  0  0  0  0  0  0  0  0  0  0  0
    5.0637   -0.4082    0.0000 N   0  0  0  0  0  0  0  0  0  0  0  0
   -2.7304   -0.3571    0.0000 C   0  0  0  0  0  0  0  0  0  0  0  0
   -2.7402   -1.8571    0.0000 O   0  0  0  0  0  0  0  0  0  0  0  0
   -4.0245    0.4014    0.0000 O   0  0  0  0  0  0  0  0  0  0  0  0
  2  1  1  1
  2  3  1  0
  3  4  1  0
  4  5  1  0
  5  6  1  0
  6  7  1  0
  2  8  1  0
  8  9  2  0
  8 10  1  0
M  END
>  <rName>  (2438) 
Orn_NH2

>  <PQ_SYMBOL>  (2438) 
Orn_NH2

>  <FULL_NAME>  (2438) 
(2S)-2-amino-5-hydrazinylpentanoic acid

>  <IUPAC_CONDENSED>  (2438) 
Orn(NH2)

>  <IUPAC>  (2438) 
(2S)-2-amino-5-hydrazinylpentanoic acid

>  <TYPE>  (2438) 
Backbone

>  <CLASS>  (2438) 
alpha

>  <ANALOG>  (2438) 
Lys

>  <MOL_WT>  (2438) 
147.17800000000003

>  <LOGP>  (2438) 
-1.3581999999999992

>  <TPSA>  (2438) 
101.36999999999999

>  <POPULARITY>  (2438) 
7.9

>  <PROTECTED>  (2438) 
TRUE

>  <SMILES>  (2438) 
N[C@@H](CCCNN)C(=O)O

>  <INCHIKEY>  (2438) 
ZPZGJLNXFKKQPI-BYPYZUCNSA-N

$$$$
NMe-Tyr_3I
     RDKit          2D

 15 15  0  0  0  0  0  0  0  0999 V2000
   -1.9066    1.3766    0.0000 N   0  0  0  0  0  0  0  0  0  0  0  0
   -3.0895    2.2989    0.0000 C   0  0  0  0  0  0  0  0  0  0  0  0
   -2.1138   -0.1090    0.0000 C   0  0  0  0  0  0  0  0  0  0  0  0
   -0.9308   -1.0313    0.0000 C   0  0  0  0  0  0  0  0  0  0  0  0
    0.4594   -0.4680    0.0000 C   0  0  0  0  0  0  0  0  0  0  0  0
    0.6666    1.0177    0.0000 C   0  0  0  0  0  0  0  0  0  0  0  0
    2.0568    1.5810    0.0000 C   0  0  0  0  0  0  0  0  0  0  0  0
    3.2398    0.6587    0.0000 C   0  0  0  0  0  0  0  0  0  0  0  0
    4.6300    1.2221    0.0000 O   0  0  0  0  0  0  0  0  0  0  0  0
    3.0325   -0.8269    0.0000 C   0  0  0  0  0  0  0  0  0  0  0  0
    4.2155   -1.7492    0.0000 I   0  0  0  0  0  0  0  0  0  0  0  0
    1.6423   -1.3902    0.0000 C   0  0  0  0  0  0  0  0  0  0  0  0
   -3.5040   -0.6724    0.0000 C   0  0  0  0  0  0  0  0  0  0  0  0
   -3.7112   -2.1580    0.0000 O   0  0  0  0  0  0  0  0  0  0  0  0
   -4.6870    0.2499    0.0000 O   0  0  0  0  0  0  0  0  0  0  0  0
  1  2  1  0
  1  3  1  0
  3  4  1  1
  4  5  1  0
  5  6  1  0
  6  7  2  0
  7  8  1  0
  8  9  1  0
  8 10  2  0
 10 11  1  0
 10 12  1  0
  3 13  1  0
 13 14  2  0
 13 15  1  0
 12  5  2  0
M  END
>  <rName>  (2439) 
NMe-Tyr_3I

>  <PQ_SYMBOL>  (2439) 
NMe-Tyr_3I

>  <FULL_NAME>  (2439) 
(2S)-3-(4-hydroxy-3-iodophenyl)-2-(methylamino)propanoic acid

>  <IUPAC_CONDENSED>  (2439) 
Me-Tyr(3-I)

>  <IUPAC>  (2439) 
(2S)-3-(4-hydroxy-3-iodophenyl)-2-(methylamino)propanoic acid

>  <TYPE>  (2439) 
Backbone

>  <CLASS>  (2439) 
alpha

>  <ANALOG>  (2439) 
Tyr

>  <MOL_WT>  (2439) 
321.11400000000003

>  <LOGP>  (2439) 
1.2118999999999998

>  <TPSA>  (2439) 
69.56

>  <POPULARITY>  (2439) 
6.4

>  <PROTECTED>  (2439) 
TRUE

>  <SMILES>  (2439) 
N(C)[C@@H](Cc1(ccc(O)c(I)c1))C(=O)O

>  <INCHIKEY>  (2439) 
PADMBYHCEGCPJU-QMMMGPOBSA-N

$$$$
bAla_3Snaphth1ylmethyl
     RDKit          2D

 17 18  0  0  0  0  0  0  0  0999 V2000
   -2.3550   -1.3574    0.0000 N   0  0  0  0  0  0  0  0  0  0  0  0
   -2.1431    0.1276    0.0000 C   0  0  0  0  0  0  0  0  0  0  0  0
   -0.7511    0.6865    0.0000 C   0  0  0  0  0  0  0  0  0  0  0  0
    0.4290   -0.2395    0.0000 C   0  0  0  0  0  0  0  0  0  0  0  0
    0.2170   -1.7244    0.0000 C   0  0  0  0  0  0  0  0  0  0  0  0
    1.3971   -2.6504    0.0000 C   0  0  0  0  0  0  0  0  0  0  0  0
    2.7891   -2.0915    0.0000 C   0  0  0  0  0  0  0  0  0  0  0  0
    3.0010   -0.6065    0.0000 C   0  0  0  0  0  0  0  0  0  0  0  0
    4.3929   -0.0476    0.0000 C   0  0  0  0  0  0  0  0  0  0  0  0
    4.6048    1.4374    0.0000 C   0  0  0  0  0  0  0  0  0  0  0  0
    3.4248    2.3634    0.0000 C   0  0  0  0  0  0  0  0  0  0  0  0
    2.0328    1.8044    0.0000 C   0  0  0  0  0  0  0  0  0  0  0  0
    1.8209    0.3195    0.0000 C   0  0  0  0  0  0  0  0  0  0  0  0
   -3.3231    1.0536    0.0000 C   0  0  0  0  0  0  0  0  0  0  0  0
   -4.7151    0.4946    0.0000 C   0  0  0  0  0  0  0  0  0  0  0  0
   -4.9270   -0.9903    0.0000 O   0  0  0  0  0  0  0  0  0  0  0  0
   -5.8951    1.4206    0.0000 O   0  0  0  0  0  0  0  0  0  0  0  0
  2  1  1  6
  2  3  1  0
  3  4  1  0
  4  5  2  0
  5  6  1  0
  6  7  2  0
  7  8  1  0
  8  9  2  0
  9 10  1  0
 10 11  2  0
 11 12  1  0
 12 13  2  0
  2 14  1  0
 14 15  1  0
 15 16  2  0
 15 17  1  0
 13  4  1  0
 13  8  1  0
M  END
>  <rName>  (2440) 
bAla_3Snaphth1ylmethyl

>  <PQ_SYMBOL>  (2440) 
bAla_3Snaphth1ylmethyl

>  <FULL_NAME>  (2440) 
(3S)-3-amino-4-naphthalen-1-ylbutanoic acid

>  <IUPAC_CONDENSED>  (2440) 
bAla(3S-naphth-1-ylmethyl)

>  <IUPAC>  (2440) 
(3S)-3-amino-4-(naphthalen-1-yl)butanoic acid

>  <TYPE>  (2440) 
Backbone

>  <CLASS>  (2440) 
beta

>  <ANALOG>  (2440) 
Phe

>  <MOL_WT>  (2440) 
229.27899999999997

>  <LOGP>  (2440) 
2.1843

>  <TPSA>  (2440) 
63.32000000000001

>  <POPULARITY>  (2440) 
7.3

>  <PROTECTED>  (2440) 
TRUE

>  <SMILES>  (2440) 
N[C@@H](Cc1(cccc2(ccccc12)))CC(=O)O

>  <INCHIKEY>  (2440) 
VEJIDCKYNSOIIN-LBPRGKRZSA-N

$$$$
Phe_4Ph_2CF3
     RDKit          2D

 22 23  0  0  0  0  0  0  0  0999 V2000
   -3.5837    1.5554    0.0000 N   0  0  0  0  0  0  0  0  0  0  0  0
   -4.2755    0.2245    0.0000 C   0  0  0  0  0  0  0  0  0  0  0  0
   -3.4688   -1.0401    0.0000 C   0  0  0  0  0  0  0  0  0  0  0  0
   -1.9702   -0.9738    0.0000 C   0  0  0  0  0  0  0  0  0  0  0  0
   -1.2784    0.3571    0.0000 C   0  0  0  0  0  0  0  0  0  0  0  0
    0.2201    0.4235    0.0000 C   0  0  0  0  0  0  0  0  0  0  0  0
    1.0268   -0.8411    0.0000 C   0  0  0  0  0  0  0  0  0  0  0  0
    0.3350   -2.1721    0.0000 C   0  0  0  0  0  0  0  0  0  0  0  0
   -1.1635   -2.2384    0.0000 C   0  0  0  0  0  0  0  0  0  0  0  0
    2.5254   -0.7748    0.0000 C   0  0  0  0  0  0  0  0  0  0  0  0
    3.3321   -2.0394    0.0000 C   0  0  0  0  0  0  0  0  0  0  0  0
    4.8306   -1.9731    0.0000 C   0  0  0  0  0  0  0  0  0  0  0  0
    5.5224   -0.6421    0.0000 C   0  0  0  0  0  0  0  0  0  0  0  0
    4.7157    0.6225    0.0000 C   0  0  0  0  0  0  0  0  0  0  0  0
    3.2172    0.5561    0.0000 C   0  0  0  0  0  0  0  0  0  0  0  0
    2.4105    1.8207    0.0000 C   0  0  0  0  0  0  0  0  0  0  0  0
    1.6038    3.0853    0.0000 F   0  0  0  0  0  0  0  0  0  0  0  0
    3.6751    2.6275    0.0000 F   0  0  0  0  0  0  0  0  0  0  0  0
    1.1459    1.0140    0.0000 F   0  0  0  0  0  0  0  0  0  0  0  0
   -5.7740    0.1581    0.0000 C   0  0  0  0  0  0  0  0  0  0  0  0
   -6.4658   -1.1728    0.0000 O   0  0  0  0  0  0  0  0  0  0  0  0
   -6.5807    1.4228    0.0000 O   0  0  0  0  0  0  0  0  0  0  0  0
  2  1  1  1
  2  3  1  0
  3  4  1  0
  4  5  1  0
  5  6  2  0
  6  7  1  0
  7  8  2  0
  8  9  1  0
  7 10  1  0
 10 11  2  0
 11 12  1  0
 12 13  2  0
 13 14  1  0
 14 15  2  0
 15 16  1  0
 16 17  1  0
 16 18  1  0
 16 19  1  0
  2 20  1  0
 20 21  2  0
 20 22  1  0
  9  4  2  0
 15 10  1  0
M  END
>  <rName>  (2441) 
Phe_4Ph_2CF3

>  <PQ_SYMBOL>  (2441) 
Phe_4Ph_2CF3

>  <FULL_NAME>  (2441) 
(2S)-2-amino-3-[2'-(trifluoromethyl)-[1,1'-biphenyl]-4-yl]propanoic acid

>  <IUPAC_CONDENSED>  (2441) 
Phe(4-Ph(2-CF3))

>  <IUPAC>  (2441) 
(2S)-2-amino-3-(4-(2-(trifluoromethyl)phenyl)phenyl)propanoic acid

>  <TYPE>  (2441) 
Backbone

>  <CLASS>  (2441) 
alpha

>  <ANALOG>  (2441) 
Phe

>  <MOL_WT>  (2441) 
309.28700000000003

>  <LOGP>  (2441) 
3.3268000000000013

>  <TPSA>  (2441) 
63.32000000000001

>  <POPULARITY>  (2441) 
3.9

>  <PROTECTED>  (2441) 
TRUE

>  <SMILES>  (2441) 
N[C@@H](Cc1(ccc(cc1)c2(ccccc2C(F)(F)F)))C(=O)O

>  <INCHIKEY>  (2441) 
LGRCMGCAYUALHZ-AWEZNQCLSA-N

$$$$
NMe-Abu_vinyl
     RDKit          2D

 10  9  0  0  0  0  0  0  0  0999 V2000
   -2.0182    1.4385    0.0000 N   0  0  0  0  0  0  0  0  0  0  0  0
   -3.4137    0.8883    0.0000 C   0  0  0  0  0  0  0  0  0  0  0  0
   -0.8441    0.5050    0.0000 C   0  0  0  0  0  0  0  0  0  0  0  0
    0.5514    1.0552    0.0000 C   0  0  0  0  0  0  0  0  0  0  0  0
    1.7256    0.1218    0.0000 C   0  0  0  0  0  0  0  0  0  0  0  0
    3.1211    0.6719    0.0000 C   0  0  0  0  0  0  0  0  0  0  0  0
    4.2952   -0.2615    0.0000 C   0  0  0  0  0  0  0  0  0  0  0  0
   -1.0653   -0.9785    0.0000 C   0  0  0  0  0  0  0  0  0  0  0  0
   -2.4608   -1.5287    0.0000 O   0  0  0  0  0  0  0  0  0  0  0  0
    0.1088   -1.9120    0.0000 O   0  0  0  0  0  0  0  0  0  0  0  0
  1  2  1  0
  1  3  1  0
  3  4  1  1
  4  5  1  0
  5  6  1  0
  6  7  2  0
  3  8  1  0
  8  9  2  0
  8 10  1  0
M  END
>  <rName>  (2442) 
NMe-Abu_vinyl

>  <PQ_SYMBOL>  (2442) 
NMe-Abu_vinyl

>  <FULL_NAME>  (2442) 
(2S)-2-(methylamino)hex-5-enoic acid

>  <IUPAC_CONDENSED>  (2442) 
Me-Abu(vinyl)

>  <IUPAC>  (2442) 
(2S)-2-(methylamino)hex-5-enoic acid

>  <TYPE>  (2442) 
Backbone

>  <CLASS>  (2442) 
alpha

>  <ANALOG>  (2442) 
Leu

>  <MOL_WT>  (2442) 
143.186

>  <LOGP>  (2442) 
0.6251999999999998

>  <TPSA>  (2442) 
49.33

>  <POPULARITY>  (2442) 
12.2

>  <PROTECTED>  (2442) 
TRUE

>  <SMILES>  (2442) 
N(C)[C@@H](CCC=C)C(=O)O

>  <INCHIKEY>  (2442) 
SUMIEJINJLACMR-LURJTMIESA-N

$$$$
Gly-Gly
     RDKit          2D

  9  8  0  0  0  0  0  0  0  0999 V2000
    0.0803    0.4336    0.0000 N   0  0  0  0  0  0  0  0  0  0  0  0
    1.4770   -0.1135    0.0000 C   0  0  0  0  0  0  0  0  0  0  0  0
    1.7016   -1.5966    0.0000 O   0  0  0  0  0  0  0  0  0  0  0  0
    2.6491    0.8225    0.0000 C   0  0  0  0  0  0  0  0  0  0  0  0
    4.0458    0.2755    0.0000 N   0  0  0  0  0  0  0  0  0  0  0  0
   -1.0918   -0.5025    0.0000 C   0  0  0  0  0  0  0  0  0  0  0  0
   -2.4885    0.0446    0.0000 C   0  0  0  0  0  0  0  0  0  0  0  0
   -2.7130    1.5277    0.0000 O   0  0  0  0  0  0  0  0  0  0  0  0
   -3.6606   -0.8914    0.0000 O   0  0  0  0  0  0  0  0  0  0  0  0
  1  2  1  0
  2  3  2  0
  2  4  1  0
  4  5  1  0
  1  6  1  0
  6  7  1  0
  7  8  2  0
  7  9  1  0
M  END
>  <rName>  (2443) 
Gly-Gly

>  <PQ_SYMBOL>  (2443) 
Gly-Gly

>  <FULL_NAME>  (2443) 
Glycylglycine

>  <IUPAC_CONDENSED>  (2443) 
Gly-Gly

>  <IUPAC>  (2443) 
2-aminomethylcarbonylaminoacetic acid

>  <TYPE>  (2443) 
Backbone

>  <CLASS>  (2443) 
alpha

>  <ANALOG>  (2443) 
Gly

>  <MOL_WT>  (2443) 
132.119

>  <LOGP>  (2443) 
-1.8540999999999999

>  <TPSA>  (2443) 
92.42

>  <POPULARITY>  (2443) 
18.8

>  <PROTECTED>  (2443) 
TRUE

>  <SMILES>  (2443) 
N(C(=O)CN)CC(=O)O

>  <INCHIKEY>  (2443) 
YMAWOPBAYDPSLA-UHFFFAOYSA-N

$$$$
Asn_PyranoseNAc3OAc_RSSR
     RDKit          2D

 32 32  0  0  0  0  0  0  0  0999 V2000
   -5.0463    2.7185    0.0000 N   0  0  0  0  0  0  0  0  0  0  0  0
   -5.5145    1.2935    0.0000 C   0  0  0  0  0  0  0  0  0  0  0  0
   -4.5144    0.1755    0.0000 C   0  0  0  0  0  0  0  0  0  0  0  0
   -3.0462    0.4826    0.0000 C   0  0  0  0  0  0  0  0  0  0  0  0
   -2.5780    1.9077    0.0000 O   0  0  0  0  0  0  0  0  0  0  0  0
   -2.0461   -0.6353    0.0000 N   0  0  0  0  0  0  0  0  0  0  0  0
   -0.5779   -0.3282    0.0000 C   0  0  0  0  0  0  0  0  0  0  0  0
   -0.1097    1.0968    0.0000 O   0  0  0  0  0  0  0  0  0  0  0  0
    1.3585    1.4039    0.0000 C   0  0  0  0  0  0  0  0  0  0  0  0
    1.8267    2.8290    0.0000 C   0  0  0  0  0  0  0  0  0  0  0  0
    3.2949    3.1361    0.0000 O   0  0  0  0  0  0  0  0  0  0  0  0
    3.7630    4.5612    0.0000 C   0  0  0  0  0  0  0  0  0  0  0  0
    2.7630    5.6792    0.0000 O   0  0  0  0  0  0  0  0  0  0  0  0
    5.2313    4.8683    0.0000 C   0  0  0  0  0  0  0  0  0  0  0  0
    2.3586    0.2860    0.0000 C   0  0  0  0  0  0  0  0  0  0  0  0
    3.8268    0.5931    0.0000 O   0  0  0  0  0  0  0  0  0  0  0  0
    4.8269   -0.5249    0.0000 C   0  0  0  0  0  0  0  0  0  0  0  0
    4.3588   -1.9499    0.0000 O   0  0  0  0  0  0  0  0  0  0  0  0
    6.2951   -0.2178    0.0000 C   0  0  0  0  0  0  0  0  0  0  0  0
    1.8905   -1.1391    0.0000 C   0  0  0  0  0  0  0  0  0  0  0  0
    2.8905   -2.2571    0.0000 O   0  0  0  0  0  0  0  0  0  0  0  0
    2.4224   -3.6821    0.0000 C   0  0  0  0  0  0  0  0  0  0  0  0
    0.9542   -3.9892    0.0000 O   0  0  0  0  0  0  0  0  0  0  0  0
    3.4225   -4.8001    0.0000 C   0  0  0  0  0  0  0  0  0  0  0  0
    0.4222   -1.4462    0.0000 C   0  0  0  0  0  0  0  0  0  0  0  0
   -0.0459   -2.8713    0.0000 N   0  0  0  0  0  0  0  0  0  0  0  0
   -1.5141   -3.1784    0.0000 C   0  0  0  0  0  0  0  0  0  0  0  0
   -2.5142   -2.0604    0.0000 O   0  0  0  0  0  0  0  0  0  0  0  0
   -1.9823   -4.6035    0.0000 C   0  0  0  0  0  0  0  0  0  0  0  0
   -6.9827    0.9864    0.0000 C   0  0  0  0  0  0  0  0  0  0  0  0
   -7.4508   -0.4387    0.0000 O   0  0  0  0  0  0  0  0  0  0  0  0
   -7.9828    2.1043    0.0000 O   0  0  0  0  0  0  0  0  0  0  0  0
  2  1  1  1
  2  3  1  0
  3  4  1  0
  4  5  2  0
  4  6  1  0
  7  6  1  6
  7  8  1  0
  8  9  1  0
  9 10  1  6
 10 11  1  0
 11 12  1  0
 12 13  2  0
 12 14  1  0
  9 15  1  0
 15 16  1  1
 16 17  1  0
 17 18  2  0
 17 19  1  0
 15 20  1  0
 20 21  1  6
 21 22  1  0
 22 23  2  0
 22 24  1  0
 20 25  1  0
 25 26  1  1
 26 27  1  0
 27 28  2  0
 27 29  1  0
  2 30  1  0
 30 31  2  0
 30 32  1  0
 25  7  1  0
M  END
>  <rName>  (2444) 
Asn_PyranoseNAc3OAc_RSSR

>  <PQ_SYMBOL>  (2444) 
Asn_PyranoseNAc3OAc_RSSR

>  <FULL_NAME>  (2444) 
(2S)-4-[[(2R,3R,4R,5S,6R)-3-acetamido-4,5-diacetyloxy-6-(acetyloxymethyl)oxan-2-yl]amino]-2-amino-4-oxobutanoic acid

>  <IUPAC_CONDENSED>  (2444) 
Asn(Pyranose-NAc-3OAc(RSSR))

>  <IUPAC>  (2444) 
(2S)-3-(((2R,3R,4R,5S,6R)-6-((acetoxy)methyl)-3-methylcarbonylamino-4,5-bis(acetoxy)-oxan-2-yl)carbamoyl)-2-aminopropanoic acid

>  <TYPE>  (2444) 
Backbone

>  <CLASS>  (2444) 
alpha

>  <ANALOG>  (2444) 
Asn

>  <MOL_WT>  (2444) 
461.4240000000002

>  <LOGP>  (2444) 
-2.439299999999993

>  <TPSA>  (2444) 
209.65

>  <POPULARITY>  (2444) 
5.2

>  <PROTECTED>  (2444) 
TRUE

>  <SMILES>  (2444) 
N[C@@H](CC(=O)N[C@@H]1(O[C@H](COC(=O)C)[C@@H](OC(=O)C)[C@H](OC(=O)C)[C@H]1NC(=O)C))C(=O)O

>  <INCHIKEY>  (2444) 
VYSAOPLOXAZTRX-XXXNSXPYSA-N

$$$$
Sec_Mob
     RDKit          2D

 16 16  0  0  0  0  0  0  0  0999 V2000
   -3.5260    1.8713    0.0000 N   0  0  0  0  0  0  0  0  0  0  0  0
   -3.8092    0.3983    0.0000 C   0  0  0  0  0  0  0  0  0  0  0  0
   -2.6752   -0.5835    0.0000 C   0  0  0  0  0  0  0  0  0  0  0  0
   -1.2579   -0.0923    0.0000 Se  0  0  0  0  0  2  0  0  0  0  0  0
   -0.1238   -1.0741    0.0000 C   0  0  0  0  0  0  0  0  0  0  0  0
    1.2935   -0.5828    0.0000 C   0  0  0  0  0  0  0  0  0  0  0  0
    1.5767    0.8902    0.0000 C   0  0  0  0  0  0  0  0  0  0  0  0
    2.9939    1.3814    0.0000 C   0  0  0  0  0  0  0  0  0  0  0  0
    4.1280    0.3997    0.0000 C   0  0  0  0  0  0  0  0  0  0  0  0
    5.5453    0.8909    0.0000 O   0  0  0  0  0  0  0  0  0  0  0  0
    6.6794   -0.0909    0.0000 C   0  0  0  0  0  0  0  0  0  0  0  0
    3.8448   -1.0734    0.0000 C   0  0  0  0  0  0  0  0  0  0  0  0
    2.4275   -1.5646    0.0000 C   0  0  0  0  0  0  0  0  0  0  0  0
   -5.2265   -0.0930    0.0000 C   0  0  0  0  0  0  0  0  0  0  0  0
   -5.5097   -1.5660    0.0000 O   0  0  0  0  0  0  0  0  0  0  0  0
   -6.3606    0.8888    0.0000 O   0  0  0  0  0  0  0  0  0  0  0  0
  2  1  1  1
  2  3  1  0
  3  4  1  0
  4  5  1  0
  5  6  1  0
  6  7  1  0
  7  8  2  0
  8  9  1  0
  9 10  1  0
 10 11  1  0
  9 12  2  0
 12 13  1  0
  2 14  1  0
 14 15  2  0
 14 16  1  0
 13  6  2  0
M  END
>  <rName>  (2445) 
Sec_Mob

>  <PQ_SYMBOL>  (2445) 
Sec_Mob

>  <FULL_NAME>  (2445) 
(2R)-2-amino-3-[(4-methoxyphenyl)methylselanyl]propanoic acid

>  <IUPAC_CONDENSED>  (2445) 
Sec(Mob)

>  <IUPAC>  (2445) 
(2R)-2-amino-3-(((4-methoxyphenyl)methyl)selanyl)propanoic acid

>  <TYPE>  (2445) 
Backbone

>  <CLASS>  (2445) 
alpha

>  <ANALOG>  (2445) 
Cys

>  <MOL_WT>  (2445) 
288.205

>  <LOGP>  (2445) 
0.7295999999999996

>  <TPSA>  (2445) 
72.55

>  <POPULARITY>  (2445) 
3.2

>  <PROTECTED>  (2445) 
TRUE

>  <SMILES>  (2445) 
N[C@@H](C[Se]Cc1(ccc(OC)cc1))C(=O)O

>  <INCHIKEY>  (2445) 
JWOVEICZZWRECX-JTQLQIEISA-N

$$$$
piperidin-3S-ylAc
     RDKit          2D

 10 10  0  0  0  0  0  0  0  0999 V2000
    2.7213   -0.9820    0.0000 N   0  0  0  0  0  0  0  0  0  0  0  0
    1.3040   -1.4730    0.0000 C   0  0  0  0  0  0  0  0  0  0  0  0
    0.1701   -0.4910    0.0000 C   0  0  0  0  0  0  0  0  0  0  0  0
    0.4536    0.9820    0.0000 C   0  0  0  0  0  0  0  0  0  0  0  0
    1.8709    1.4730    0.0000 C   0  0  0  0  0  0  0  0  0  0  0  0
    3.0048    0.4910    0.0000 C   0  0  0  0  0  0  0  0  0  0  0  0
   -1.2473   -0.9820    0.0000 C   0  0  0  0  0  0  0  0  0  0  0  0
   -2.3812    0.0000    0.0000 C   0  0  0  0  0  0  0  0  0  0  0  0
   -2.0977    1.4730    0.0000 O   0  0  0  0  0  0  0  0  0  0  0  0
   -3.7985   -0.4910    0.0000 O   0  0  0  0  0  0  0  0  0  0  0  0
  1  2  1  0
  2  3  1  0
  3  4  1  0
  4  5  1  0
  5  6  1  0
  3  7  1  6
  7  8  1  0
  8  9  2  0
  8 10  1  0
  6  1  1  0
M  END
>  <rName>  (2446) 
piperidin-3S-ylAc

>  <PQ_SYMBOL>  (2446) 
piperidin-3S-ylAc

>  <FULL_NAME>  (2446) 
2-[(3S)-piperidin-3-yl]acetic acid

>  <IUPAC_CONDENSED>  (2446) 
piperidin-3S-ylAc

>  <IUPAC>  (2446) 
2-((3S)-piperidin-3-yl)acetic acid

>  <TYPE>  (2446) 
Backbone

>  <CLASS>  (2446) 
gamma

>  <ANALOG>  (2446) 
Pro

>  <MOL_WT>  (2446) 
143.186

>  <LOGP>  (2446) 
0.46069999999999983

>  <TPSA>  (2446) 
49.33

>  <POPULARITY>  (2446) 
10.7

>  <PROTECTED>  (2446) 
TRUE

>  <SMILES>  (2446) 
N1C[C@@H](CCC1)CC(=O)O

>  <INCHIKEY>  (2446) 
WKXRHAACRPUBIC-LURJTMIESA-N

$$$$
Ala_naphth2yl
     RDKit          2D

 22 25  0  0  0  0  0  0  0  0999 V2000
   -4.1937   -1.5901    0.0000 N   0  0  0  0  0  0  0  0  0  0  0  0
   -4.0904   -0.0937    0.0000 C   0  0  0  0  0  0  0  0  0  0  0  0
   -2.7428    0.5651    0.0000 C   0  0  0  0  0  0  0  0  0  0  0  0
   -1.4985   -0.2725    0.0000 C   0  0  0  0  0  0  0  0  0  0  0  0
   -1.6017   -1.7689    0.0000 C   0  0  0  0  0  0  0  0  0  0  0  0
   -0.3574   -2.6066    0.0000 C   0  0  0  0  0  0  0  0  0  0  0  0
    0.9902   -1.9478    0.0000 C   0  0  0  0  0  0  0  0  0  0  0  0
    2.2345   -2.7854    0.0000 C   0  0  0  0  0  0  0  0  0  0  0  0
    3.5821   -2.1266    0.0000 C   0  0  0  0  0  0  0  0  0  0  0  0
    3.6853   -0.6302    0.0000 C   0  0  0  0  0  0  0  0  0  0  0  0
    5.0329    0.0286    0.0000 C   0  0  0  0  0  0  0  0  0  0  0  0
    5.1362    1.5251    0.0000 C   0  0  0  0  0  0  0  0  0  0  0  0
    3.8918    2.3627    0.0000 C   0  0  0  0  0  0  0  0  0  0  0  0
    2.5443    1.7039    0.0000 C   0  0  0  0  0  0  0  0  0  0  0  0
    1.2999    2.5416    0.0000 C   0  0  0  0  0  0  0  0  0  0  0  0
   -0.0477    1.8827    0.0000 C   0  0  0  0  0  0  0  0  0  0  0  0
   -0.1509    0.3863    0.0000 C   0  0  0  0  0  0  0  0  0  0  0  0
    1.0934   -0.4513    0.0000 C   0  0  0  0  0  0  0  0  0  0  0  0
    2.4410    0.2075    0.0000 C   0  0  0  0  0  0  0  0  0  0  0  0
   -5.3347    0.7440    0.0000 C   0  0  0  0  0  0  0  0  0  0  0  0
   -5.2315    2.2404    0.0000 O   0  0  0  0  0  0  0  0  0  0  0  0
   -6.6823    0.0852    0.0000 O   0  0  0  0  0  0  0  0  0  0  0  0
  2  1  1  6
  2  3  1  0
  3  4  1  0
  4  5  1  0
  5  6  2  0
  6  7  1  0
  7  8  2  0
  8  9  1  0
  9 10  2  0
 10 11  1  0
 11 12  2  0
 12 13  1  0
 13 14  2  0
 14 15  1  0
 15 16  2  0
 16 17  1  0
 17 18  1  0
 18 19  2  0
  2 20  1  0
 20 21  2  0
 20 22  1  0
 17  4  2  0
 18  7  1  0
 19 10  1  0
 19 14  1  0
M  END
>  <rName>  (2447) 
Ala_naphth2yl

>  <PQ_SYMBOL>  (2447) 
Ala_naphth2yl

>  <FULL_NAME>  (2447) 
1-Pyrenylalanine

>  <IUPAC_CONDENSED>  (2447) 
Ala(naphth-2-yl)

>  <IUPAC>  (2447) 
(2S)-2-amino-3-pyren-1-ylpropanoic acid

>  <TYPE>  (2447) 
Backbone

>  <CLASS>  (2447) 
alpha

>  <ANALOG>  (2447) 
Phe

>  <MOL_WT>  (2447) 
289.334

>  <LOGP>  (2447) 
3.538400000000002

>  <TPSA>  (2447) 
63.32000000000001

>  <POPULARITY>  (2447) 
3

>  <PROTECTED>  (2447) 
TRUE

>  <SMILES>  (2447) 
N[C@@H](Cc1(ccc2(ccc3(cccc4(ccc1c2c34)))))C(=O)O

>  <INCHIKEY>  (2447) 
VTMOPDBUZPBOPL-INIZCTEOSA-N

$$$$
piperidin-4-ylPr
     RDKit          2D

 11 11  0  0  0  0  0  0  0  0999 V2000
   -3.6904   -0.4000    0.0000 N   0  0  0  0  0  0  0  0  0  0  0  0
   -3.2643    1.0382    0.0000 C   0  0  0  0  0  0  0  0  0  0  0  0
   -1.8057    1.3883    0.0000 C   0  0  0  0  0  0  0  0  0  0  0  0
   -0.7732    0.3002    0.0000 C   0  0  0  0  0  0  0  0  0  0  0  0
   -1.1993   -1.1380    0.0000 C   0  0  0  0  0  0  0  0  0  0  0  0
   -2.6579   -1.4881    0.0000 C   0  0  0  0  0  0  0  0  0  0  0  0
    0.6853    0.6503    0.0000 C   0  0  0  0  0  0  0  0  0  0  0  0
    1.7178   -0.4378    0.0000 C   0  0  0  0  0  0  0  0  0  0  0  0
    3.1764   -0.0877    0.0000 C   0  0  0  0  0  0  0  0  0  0  0  0
    3.6025    1.3505    0.0000 O   0  0  0  0  0  0  0  0  0  0  0  0
    4.2089   -1.1758    0.0000 O   0  0  0  0  0  0  0  0  0  0  0  0
  1  2  1  0
  2  3  1  0
  3  4  1  0
  4  5  1  0
  5  6  1  0
  4  7  1  0
  7  8  1  0
  8  9  1  0
  9 10  2  0
  9 11  1  0
  6  1  1  0
M  END
>  <rName>  (2448) 
piperidin-4-ylPr

>  <PQ_SYMBOL>  (2448) 
piperidin-4-ylPr

>  <FULL_NAME>  (2448) 
3-(Piperidin-4-yl)propanoic acid

>  <IUPAC_CONDENSED>  (2448) 
piperidin-4-ylPr

>  <IUPAC>  (2448) 
3-(piperidin-4-yl)propanoic acid

>  <TYPE>  (2448) 
Backbone

>  <CLASS>  (2448) 
epsilon

>  <ANALOG>  (2448) 
Pro

>  <MOL_WT>  (2448) 
157.21300000000002

>  <LOGP>  (2448) 
0.8507999999999998

>  <TPSA>  (2448) 
49.33

>  <POPULARITY>  (2448) 
12.8

>  <PROTECTED>  (2448) 
TRUE

>  <SMILES>  (2448) 
N1CCC(CC1)CCC(=O)O

>  <INCHIKEY>  (2448) 
AUYQMCCWFNSFGV-UHFFFAOYSA-N

$$$$
4-amino-cHex-1-CH2CO2H
     RDKit          2D

 11 11  0  0  0  0  0  0  0  0999 V2000
   -4.0738   -0.6025    0.0000 N   0  0  0  0  0  0  0  0  0  0  0  0
   -2.6249   -0.2143    0.0000 C   0  0  0  0  0  0  0  0  0  0  0  0
   -2.2367    1.2346    0.0000 C   0  0  0  0  0  0  0  0  0  0  0  0
   -0.7878    1.6228    0.0000 C   0  0  0  0  0  0  0  0  0  0  0  0
    0.2729    0.5622    0.0000 C   0  0  0  0  0  0  0  0  0  0  0  0
   -0.1153   -0.8867    0.0000 C   0  0  0  0  0  0  0  0  0  0  0  0
   -1.5642   -1.2750    0.0000 C   0  0  0  0  0  0  0  0  0  0  0  0
    1.7218    0.9504    0.0000 C   0  0  0  0  0  0  0  0  0  0  0  0
    2.7824   -0.1103    0.0000 C   0  0  0  0  0  0  0  0  0  0  0  0
    2.3942   -1.5592    0.0000 O   0  0  0  0  0  0  0  0  0  0  0  0
    4.2313    0.2780    0.0000 O   0  0  0  0  0  0  0  0  0  0  0  0
  1  2  1  0
  2  3  1  0
  3  4  1  0
  4  5  1  0
  5  6  1  0
  6  7  1  0
  5  8  1  0
  8  9  1  0
  9 10  2  0
  9 11  1  0
  7  2  1  0
M  END
>  <rName>  (2449) 
4-amino-cHex-1-CH2CO2H

>  <PQ_SYMBOL>  (2449) 
4-amino-cHex-1-CH2CO2H

>  <FULL_NAME>  (2449) 
2-(4-aminocyclohexyl)acetic Acid

>  <IUPAC_CONDENSED>  (2449) 
4-amino-cHex-1-CH2CO2H

>  <IUPAC>  (2449) 
2-(4-aminocyclohexyl)acetic acid

>  <TYPE>  (2449) 
Backbone

>  <CLASS>  (2449) 
epsilon

>  <ANALOG>  (2449) 
Ala

>  <MOL_WT>  (2449) 
157.213

>  <LOGP>  (2449) 
0.9785999999999997

>  <TPSA>  (2449) 
63.32000000000001

>  <POPULARITY>  (2449) 
12.3

>  <PROTECTED>  (2449) 
TRUE

>  <SMILES>  (2449) 
NC1CCC(CC1)CC(=O)O

>  <INCHIKEY>  (2449) 
XVDSFSRMHSDHGJ-UHFFFAOYSA-N

$$$$
bAla_3Rprop2ynyl
     RDKit          2D

  9  8  0  0  0  0  0  0  0  0999 V2000
    0.3560   -1.3170    0.0000 N   0  0  0  0  0  0  0  0  0  0  0  0
    0.2798    0.1811    0.0000 C   0  0  0  0  0  0  0  0  0  0  0  0
    1.5392    0.9961    0.0000 C   0  0  0  0  0  0  0  0  0  0  0  0
    2.8746    0.3129    0.0000 C   0  0  0  0  0  0  0  0  0  0  0  0
    4.2100   -0.3702    0.0000 C   0  0  0  0  0  0  0  0  0  0  0  0
   -1.0556    0.8642    0.0000 C   0  0  0  0  0  0  0  0  0  0  0  0
   -2.3149    0.0493    0.0000 C   0  0  0  0  0  0  0  0  0  0  0  0
   -2.2388   -1.4488    0.0000 O   0  0  0  0  0  0  0  0  0  0  0  0
   -3.6503    0.7324    0.0000 O   0  0  0  0  0  0  0  0  0  0  0  0
  2  1  1  1
  2  3  1  0
  3  4  1  0
  4  5  3  0
  2  6  1  0
  6  7  1  0
  7  8  2  0
  7  9  1  0
M  END
>  <rName>  (2450) 
bAla_3Rprop2ynyl

>  <PQ_SYMBOL>  (2450) 
bAla_3Rprop2ynyl

>  <FULL_NAME>  (2450) 
(3R)-3-aminohex-5-ynoic acid

>  <IUPAC_CONDENSED>  (2450) 
bAla(3R-prop-2-ynyl)

>  <IUPAC>  (2450) 
(3R)-3-aminohex-5-ynoic acid

>  <TYPE>  (2450) 
Backbone

>  <CLASS>  (2450) 
beta

>  <ANALOG>  (2450) 
Val

>  <MOL_WT>  (2450) 
127.14299999999997

>  <LOGP>  (2450) 
-0.18829999999999997

>  <TPSA>  (2450) 
63.32000000000001

>  <POPULARITY>  (2450) 
5

>  <PROTECTED>  (2450) 
TRUE

>  <SMILES>  (2450) 
N[C@H](CC#C)CC(=O)O

>  <INCHIKEY>  (2450) 
DWFMCQGMVSIJBN-RXMQYKEDSA-N

$$$$
bAla_3RBn_4NO2
     RDKit          2D

 16 16  0  0  0  0  0  0  0  0999 V2000
   -1.9908    1.1560    0.0000 N   0  0  0  0  0  0  0  0  0  0  0  0
   -2.3119   -0.3092    0.0000 C   0  0  0  0  0  0  0  0  0  0  0  0
   -1.2035   -1.3199    0.0000 C   0  0  0  0  0  0  0  0  0  0  0  0
    0.2260   -0.8653    0.0000 C   0  0  0  0  0  0  0  0  0  0  0  0
    0.5470    0.5999    0.0000 C   0  0  0  0  0  0  0  0  0  0  0  0
    1.9765    1.0545    0.0000 C   0  0  0  0  0  0  0  0  0  0  0  0
    3.0849    0.0439    0.0000 C   0  0  0  0  0  0  0  0  0  0  0  0
    2.7639   -1.4214    0.0000 C   0  0  0  0  0  0  0  0  0  0  0  0
    1.3344   -1.8759    0.0000 C   0  0  0  0  0  0  0  0  0  0  0  0
    4.5144    0.4985    0.0000 N   0  0  0  0  0  0  0  0  0  0  0  0
    4.8354    1.9637    0.0000 O   0  0  0  0  0  0  0  0  0  0  0  0
    5.6228   -0.5122    0.0000 O   0  0  0  0  0  0  0  0  0  0  0  0
   -3.7413   -0.7638    0.0000 C   0  0  0  0  0  0  0  0  0  0  0  0
   -4.8498    0.2468    0.0000 C   0  0  0  0  0  0  0  0  0  0  0  0
   -4.5287    1.7121    0.0000 O   0  0  0  0  0  0  0  0  0  0  0  0
   -6.2792   -0.2078    0.0000 O   0  0  0  0  0  0  0  0  0  0  0  0
  2  1  1  6
  2  3  1  0
  3  4  1  0
  4  5  1  0
  5  6  2  0
  6  7  1  0
  7  8  2  0
  8  9  1  0
  7 10  1  0
 10 11  2  0
 10 12  1  0
  2 13  1  0
 13 14  1  0
 14 15  2  0
 14 16  1  0
  9  4  2  0
M  CHG  2  10   1  12  -1
M  END
>  <rName>  (2451) 
bAla_3RBn_4NO2

>  <PQ_SYMBOL>  (2451) 
bAla_3RBn_4NO2

>  <FULL_NAME>  (2451) 
(R)-3-Amino-4-(4-nitrophenyl)butanoic acid

>  <IUPAC_CONDENSED>  (2451) 
bAla(3R-Bn(4-NO2))

>  <IUPAC>  (2451) 
(3R)-3-amino-4-(4-nitrophenyl)butanoic acid

>  <TYPE>  (2451) 
Backbone

>  <CLASS>  (2451) 
beta

>  <ANALOG>  (2451) 
Phe

>  <MOL_WT>  (2451) 
224.21599999999992

>  <LOGP>  (2451) 
0.9393

>  <TPSA>  (2451) 
106.46

>  <POPULARITY>  (2451) 
4.2

>  <PROTECTED>  (2451) 
TRUE

>  <SMILES>  (2451) 
N[C@H](Cc1(ccc(cc1)[N+](=O)[O-]))CC(=O)O

>  <INCHIKEY>  (2451) 
SMTCEKUITUZDPM-MRVPVSSYSA-N

$$$$
Val-Ala
     RDKit          2D

 13 12  0  0  0  0  0  0  0  0999 V2000
    0.7388    1.2374    0.0000 N   0  0  0  0  0  0  0  0  0  0  0  0
   -0.3572    0.2133    0.0000 C   0  0  0  0  0  0  0  0  0  0  0  0
   -0.0183   -1.2479    0.0000 O   0  0  0  0  0  0  0  0  0  0  0  0
   -1.7921    0.6504    0.0000 C   0  0  0  0  0  0  0  0  0  0  0  0
   -2.1310    2.1116    0.0000 N   0  0  0  0  0  0  0  0  0  0  0  0
   -2.8881   -0.3737    0.0000 C   0  0  0  0  0  0  0  0  0  0  0  0
   -4.3230    0.0634    0.0000 C   0  0  0  0  0  0  0  0  0  0  0  0
   -2.5492   -1.8349    0.0000 C   0  0  0  0  0  0  0  0  0  0  0  0
    2.1737    0.8002    0.0000 C   0  0  0  0  0  0  0  0  0  0  0  0
    3.2697    1.8243    0.0000 C   0  0  0  0  0  0  0  0  0  0  0  0
    2.5126   -0.6610    0.0000 C   0  0  0  0  0  0  0  0  0  0  0  0
    1.4166   -1.6851    0.0000 O   0  0  0  0  0  0  0  0  0  0  0  0
    3.9475   -1.0981    0.0000 O   0  0  0  0  0  0  0  0  0  0  0  0
  1  2  1  0
  2  3  2  0
  2  4  1  0
  4  5  1  6
  4  6  1  0
  6  7  1  0
  6  8  1  0
  1  9  1  0
  9 10  1  1
  9 11  1  0
 11 12  2  0
 11 13  1  0
M  END
>  <rName>  (2452) 
Val-Ala

>  <PQ_SYMBOL>  (2452) 
Val-Ala

>  <FULL_NAME>  (2452) 
Val-Ala

>  <IUPAC_CONDENSED>  (2452) 
Val-Ala

>  <IUPAC>  (2452) 
(2S)-2-((1S)-1-amino-2-methylpropylcarbonylamino)propanoic acid

>  <TYPE>  (2452) 
Backbone

>  <CLASS>  (2452) 
alpha

>  <ANALOG>  (2452) 
Ala

>  <MOL_WT>  (2452) 
188.22699999999998

>  <LOGP>  (2452) 
-0.44100000000000056

>  <TPSA>  (2452) 
92.42

>  <POPULARITY>  (2452) 
14.8

>  <PROTECTED>  (2452) 
TRUE

>  <SMILES>  (2452) 
N(C(=O)[C@@H](N)C(C)C)[C@@H](C)C(=O)O

>  <INCHIKEY>  (2452) 
HSRXSKHRSXRCFC-WDSKDSINSA-N

$$$$
bAla_b_bdiF
     RDKit          2D

  8  7  0  0  0  0  0  0  0  0999 V2000
   -2.7534    0.3439    0.0000 N   0  0  0  0  0  0  0  0  0  0  0  0
   -1.6552   -0.6779    0.0000 C   0  0  0  0  0  0  0  0  0  0  0  0
   -0.2212   -0.2378    0.0000 C   0  0  0  0  0  0  0  0  0  0  0  0
    0.2189   -1.6717    0.0000 F   0  0  0  0  0  0  0  0  0  0  0  0
   -0.6614    1.1962    0.0000 F   0  0  0  0  0  0  0  0  0  0  0  0
    1.2127    0.2024    0.0000 C   0  0  0  0  0  0  0  0  0  0  0  0
    2.3109   -0.8194    0.0000 O   0  0  0  0  0  0  0  0  0  0  0  0
    1.5485    1.6643    0.0000 O   0  0  0  0  0  0  0  0  0  0  0  0
  1  2  1  0
  2  3  1  0
  3  4  1  0
  3  5  1  0
  3  6  1  0
  6  7  2  0
  6  8  1  0
M  END
>  <rName>  (2453) 
bAla_b_bdiF

>  <PQ_SYMBOL>  (2453) 
bAla_b_bdiF

>  <FULL_NAME>  (2453) 
3-Amino-2,2-difluoropropanoic acid

>  <IUPAC_CONDENSED>  (2453) 
bAla(b,b-diF)

>  <IUPAC>  (2453) 
3-amino-2,2-difluoropropanoic acid

>  <TYPE>  (2453) 
Backbone

>  <CLASS>  (2453) 
beta

>  <ANALOG>  (2453) 
X

>  <MOL_WT>  (2453) 
125.07399999999998

>  <LOGP>  (2453) 
-0.335

>  <TPSA>  (2453) 
63.32000000000001

>  <POPULARITY>  (2453) 
8.6

>  <PROTECTED>  (2453) 
TRUE

>  <SMILES>  (2453) 
NCC(F)(F)C(=O)O

>  <INCHIKEY>  (2453) 
OEXAUVBPMONLBF-UHFFFAOYSA-N

$$$$
Val-Cit
     RDKit          2D

 19 18  0  0  0  0  0  0  0  0999 V2000
   -1.3913    0.8296    0.0000 N   0  0  0  0  0  0  0  0  0  0  0  0
   -2.7305    0.1539    0.0000 C   0  0  0  0  0  0  0  0  0  0  0  0
   -2.8149   -1.3437    0.0000 O   0  0  0  0  0  0  0  0  0  0  0  0
   -3.9853    0.9758    0.0000 C   0  0  0  0  0  0  0  0  0  0  0  0
   -3.9008    2.4734    0.0000 N   0  0  0  0  0  0  0  0  0  0  0  0
   -5.3244    0.3001    0.0000 C   0  0  0  0  0  0  0  0  0  0  0  0
   -6.5792    1.1220    0.0000 C   0  0  0  0  0  0  0  0  0  0  0  0
   -5.4089   -1.1975    0.0000 C   0  0  0  0  0  0  0  0  0  0  0  0
   -0.1365    0.0077    0.0000 C   0  0  0  0  0  0  0  0  0  0  0  0
    1.2027    0.6834    0.0000 C   0  0  0  0  0  0  0  0  0  0  0  0
    2.4574   -0.1385    0.0000 C   0  0  0  0  0  0  0  0  0  0  0  0
    3.7966    0.5372    0.0000 C   0  0  0  0  0  0  0  0  0  0  0  0
    5.0514   -0.2847    0.0000 N   0  0  0  0  0  0  0  0  0  0  0  0
    6.3906    0.3910    0.0000 C   0  0  0  0  0  0  0  0  0  0  0  0
    6.4750    1.8886    0.0000 O   0  0  0  0  0  0  0  0  0  0  0  0
    7.6454   -0.4309    0.0000 N   0  0  0  0  0  0  0  0  0  0  0  0
   -0.2209   -1.4899    0.0000 C   0  0  0  0  0  0  0  0  0  0  0  0
   -1.5601   -2.1656    0.0000 O   0  0  0  0  0  0  0  0  0  0  0  0
    1.0338   -2.3118    0.0000 O   0  0  0  0  0  0  0  0  0  0  0  0
  1  2  1  0
  2  3  2  0
  2  4  1  0
  4  5  1  6
  4  6  1  0
  6  7  1  0
  6  8  1  0
  1  9  1  0
  9 10  1  1
 10 11  1  0
 11 12  1  0
 12 13  1  0
 13 14  1  0
 14 15  2  0
 14 16  1  0
  9 17  1  0
 17 18  2  0
 17 19  1  0
M  END
>  <rName>  (2454) 
Val-Cit

>  <PQ_SYMBOL>  (2454) 
Val-Cit

>  <FULL_NAME>  (2454) 
L-Valyl-L-citrulline

>  <IUPAC_CONDENSED>  (2454) 
Val-Cit

>  <IUPAC>  (2454) 
(2S)-2-((1S)-1-amino-2-methylpropylcarbonylamino)-5-(carbamoylamino)pentanoic acid

>  <TYPE>  (2454) 
Backbone

>  <CLASS>  (2454) 
alpha

>  <ANALOG>  (2454) 
Arg

>  <MOL_WT>  (2454) 
274.32099999999997

>  <LOGP>  (2454) 
-1.012399999999997

>  <TPSA>  (2454) 
147.54

>  <POPULARITY>  (2454) 
4.5

>  <PROTECTED>  (2454) 
TRUE

>  <SMILES>  (2454) 
N(C(=O)[C@@H](N)C(C)C)[C@@H](CCCNC(=O)N)C(=O)O

>  <INCHIKEY>  (2454) 
AGGWFDNPHKLBBV-YUMQZZPRSA-N

$$$$
Gaba_3Ph
     RDKit          2D

 13 13  0  0  0  0  0  0  0  0999 V2000
   -2.4940   -1.8383    0.0000 N   0  0  0  0  0  0  0  0  0  0  0  0
   -1.0067   -1.6435    0.0000 C   0  0  0  0  0  0  0  0  0  0  0  0
   -0.4317   -0.2581    0.0000 C   0  0  0  0  0  0  0  0  0  0  0  0
    1.0556   -0.0633    0.0000 C   0  0  0  0  0  0  0  0  0  0  0  0
    1.6306    1.3221    0.0000 C   0  0  0  0  0  0  0  0  0  0  0  0
    3.1179    1.5169    0.0000 C   0  0  0  0  0  0  0  0  0  0  0  0
    4.0302    0.3262    0.0000 C   0  0  0  0  0  0  0  0  0  0  0  0
    3.4552   -1.0592    0.0000 C   0  0  0  0  0  0  0  0  0  0  0  0
    1.9679   -1.2540    0.0000 C   0  0  0  0  0  0  0  0  0  0  0  0
   -1.3440    0.9326    0.0000 C   0  0  0  0  0  0  0  0  0  0  0  0
   -2.8313    0.7378    0.0000 C   0  0  0  0  0  0  0  0  0  0  0  0
   -3.4063   -0.6476    0.0000 O   0  0  0  0  0  0  0  0  0  0  0  0
   -3.7436    1.9285    0.0000 O   0  0  0  0  0  0  0  0  0  0  0  0
  1  2  1  0
  2  3  1  0
  3  4  1  0
  4  5  2  0
  5  6  1  0
  6  7  2  0
  7  8  1  0
  8  9  2  0
  3 10  1  0
 10 11  1  0
 11 12  2  0
 11 13  1  0
  9  4  1  0
M  END
>  <rName>  (2455) 
Gaba_3Ph

>  <PQ_SYMBOL>  (2455) 
Gaba_3Ph

>  <FULL_NAME>  (2455) 
Phenibut

>  <IUPAC_CONDENSED>  (2455) 
Gaba(3-Ph)

>  <IUPAC>  (2455) 
4-amino-3-phenylbutanoic acid

>  <TYPE>  (2455) 
Backbone

>  <CLASS>  (2455) 
gamma

>  <ANALOG>  (2455) 
X

>  <MOL_WT>  (2455) 
179.21899999999994

>  <LOGP>  (2455) 
1.2036

>  <TPSA>  (2455) 
63.32000000000001

>  <POPULARITY>  (2455) 
14.7

>  <PROTECTED>  (2455) 
TRUE

>  <SMILES>  (2455) 
NCC(c1(ccccc1))CC(=O)O

>  <INCHIKEY>  (2455) 
DAFOCGYVTAOKAJ-UHFFFAOYSA-N

$$$$
Pro_4RSMe
     RDKit          2D

 10 10  0  0  0  0  0  0  0  0999 V2000
    0.5059   -1.6189    0.0000 N   0  0  0  0  0  0  0  0  0  0  0  0
    0.8536   -0.1598    0.0000 C   0  0  0  0  0  0  0  0  0  0  0  0
   -0.4267    0.6218    0.0000 C   0  0  0  0  0  0  0  0  0  0  0  0
   -1.5656   -0.3543    0.0000 C   0  0  0  0  0  0  0  0  0  0  0  0
   -0.9893   -1.7392    0.0000 C   0  0  0  0  0  0  0  0  0  0  0  0
   -3.0248   -0.0066    0.0000 S   0  0  0  0  0  0  0  0  0  0  0  0
   -3.4533    1.4309    0.0000 C   0  0  0  0  0  0  0  0  0  0  0  0
    2.2384    0.4166    0.0000 C   0  0  0  0  0  0  0  0  0  0  0  0
    2.4317    1.9041    0.0000 O   0  0  0  0  0  0  0  0  0  0  0  0
    3.4300   -0.4945    0.0000 O   0  0  0  0  0  0  0  0  0  0  0  0
  1  2  1  0
  2  3  1  0
  3  4  1  0
  4  5  1  0
  4  6  1  6
  6  7  1  0
  2  8  1  1
  8  9  2  0
  8 10  1  0
  5  1  1  0
M  END
>  <rName>  (2456) 
Pro_4RSMe

>  <PQ_SYMBOL>  (2456) 
Pro_4RSMe

>  <FULL_NAME>  (2456) 
(2S,4R)-4-(Methylthio)pyrrolidine-2-carboxylic acid

>  <IUPAC_CONDENSED>  (2456) 
Pro(4R-SMe)

>  <IUPAC>  (2456) 
(2S,4R)-4-(methylsulfanyl)pyrrolidine-2-carboxylic acid

>  <TYPE>  (2456) 
Backbone

>  <CLASS>  (2456) 
alpha

>  <ANALOG>  (2456) 
Pro

>  <MOL_WT>  (2456) 
161.226

>  <LOGP>  (2456) 
0.16450000000000004

>  <TPSA>  (2456) 
49.33

>  <POPULARITY>  (2456) 
9.3

>  <PROTECTED>  (2456) 
TRUE

>  <SMILES>  (2456) 
N1[C@@H](C[C@H](C1)SC)C(=O)O

>  <INCHIKEY>  (2456) 
KZLPQCNSZCKHAI-UHNVWZDZSA-N

$$$$
Q0005
     RDKit          2D

 60 59  0  0  0  0  0  0  0  0999 V2000
    7.6853   -0.4739    0.0000 N   0  0  0  0  0  0  0  0  0  0  0  0
    8.9854    0.2742    0.0000 C   0  0  0  0  0  0  0  0  0  0  0  0
    8.9877    1.7742    0.0000 O   0  0  0  0  0  0  0  0  0  0  0  0
   10.2834   -0.4778    0.0000 C   0  0  0  0  0  0  0  0  0  0  0  0
   11.5835    0.2703    0.0000 C   0  0  0  0  0  0  0  0  0  0  0  0
   12.8814   -0.4816    0.0000 C   0  0  0  0  0  0  0  0  0  0  0  0
   14.1816    0.2665    0.0000 C   0  0  0  0  0  0  0  0  0  0  0  0
   15.4795   -0.4855    0.0000 C   0  0  0  0  0  0  0  0  0  0  0  0
   16.7797    0.2626    0.0000 C   0  0  0  0  0  0  0  0  0  0  0  0
   18.0776   -0.4893    0.0000 C   0  0  0  0  0  0  0  0  0  0  0  0
   19.3777    0.2588    0.0000 C   0  0  0  0  0  0  0  0  0  0  0  0
   20.6756   -0.4932    0.0000 C   0  0  0  0  0  0  0  0  0  0  0  0
   21.9758    0.2549    0.0000 C   0  0  0  0  0  0  0  0  0  0  0  0
   23.2737   -0.4970    0.0000 C   0  0  0  0  0  0  0  0  0  0  0  0
   24.5739    0.2510    0.0000 C   0  0  0  0  0  0  0  0  0  0  0  0
   25.8718   -0.5009    0.0000 C   0  0  0  0  0  0  0  0  0  0  0  0
   27.1719    0.2472    0.0000 C   0  0  0  0  0  0  0  0  0  0  0  0
   28.4699   -0.5047    0.0000 C   0  0  0  0  0  0  0  0  0  0  0  0
   29.7700    0.2433    0.0000 C   0  0  0  0  0  0  0  0  0  0  0  0
   31.0679   -0.5086    0.0000 C   0  0  0  0  0  0  0  0  0  0  0  0
   31.0657   -2.0086    0.0000 O   0  0  0  0  0  0  0  0  0  0  0  0
   32.3681    0.2395    0.0000 O   0  0  0  0  0  0  0  0  0  0  0  0
    6.3874    0.2780    0.0000 C   0  0  0  0  0  0  0  0  0  0  0  0
    5.0872   -0.4700    0.0000 C   0  0  0  0  0  0  0  0  0  0  0  0
    3.7893    0.2819    0.0000 C   0  0  0  0  0  0  0  0  0  0  0  0
    2.4891   -0.4662    0.0000 C   0  0  0  0  0  0  0  0  0  0  0  0
    2.4869   -1.9662    0.0000 O   0  0  0  0  0  0  0  0  0  0  0  0
    1.1912    0.2857    0.0000 N   0  0  0  0  0  0  0  0  0  0  0  0
   -0.1089   -0.4623    0.0000 C   0  0  0  0  0  0  0  0  0  0  0  0
   -1.4069    0.2896    0.0000 C   0  0  0  0  0  0  0  0  0  0  0  0
   -2.7070   -0.4585    0.0000 O   0  0  0  0  0  0  0  0  0  0  0  0
   -4.0049    0.2934    0.0000 C   0  0  0  0  0  0  0  0  0  0  0  0
   -5.3051   -0.4546    0.0000 C   0  0  0  0  0  0  0  0  0  0  0  0
   -6.6030    0.2973    0.0000 O   0  0  0  0  0  0  0  0  0  0  0  0
   -7.9032   -0.4508    0.0000 C   0  0  0  0  0  0  0  0  0  0  0  0
   -9.2011    0.3012    0.0000 C   0  0  0  0  0  0  0  0  0  0  0  0
   -9.1989    1.8012    0.0000 O   0  0  0  0  0  0  0  0  0  0  0  0
  -10.5012   -0.4469    0.0000 N   0  0  0  0  0  0  0  0  0  0  0  0
  -11.7992    0.3050    0.0000 C   0  0  0  0  0  0  0  0  0  0  0  0
  -13.0993   -0.4431    0.0000 C   0  0  0  0  0  0  0  0  0  0  0  0
  -14.3972    0.3089    0.0000 O   0  0  0  0  0  0  0  0  0  0  0  0
  -15.6974   -0.4392    0.0000 C   0  0  0  0  0  0  0  0  0  0  0  0
  -16.9953    0.3127    0.0000 C   0  0  0  0  0  0  0  0  0  0  0  0
  -18.2955   -0.4354    0.0000 O   0  0  0  0  0  0  0  0  0  0  0  0
  -19.5934    0.3166    0.0000 C   0  0  0  0  0  0  0  0  0  0  0  0
  -20.8935   -0.4315    0.0000 C   0  0  0  0  0  0  0  0  0  0  0  0
  -20.8958   -1.9315    0.0000 O   0  0  0  0  0  0  0  0  0  0  0  0
  -22.1914    0.3204    0.0000 N   0  0  0  0  0  0  0  0  0  0  0  0
  -23.4916   -0.4276    0.0000 C   0  0  0  0  0  0  0  0  0  0  0  0
  -24.7895    0.3243    0.0000 C   0  0  0  0  0  0  0  0  0  0  0  0
  -26.0897   -0.4238    0.0000 C   0  0  0  0  0  0  0  0  0  0  0  0
  -27.3876    0.3281    0.0000 C   0  0  0  0  0  0  0  0  0  0  0  0
  -28.6877   -0.4199    0.0000 C   0  0  0  0  0  0  0  0  0  0  0  0
  -28.6900   -1.9199    0.0000 N   0  0  0  0  0  0  0  0  0  0  0  0
  -29.9857    0.3320    0.0000 C   0  0  0  0  0  0  0  0  0  0  0  0
  -29.9834    1.8320    0.0000 O   0  0  0  0  0  0  0  0  0  0  0  0
  -31.2858   -0.4161    0.0000 O   0  0  0  0  0  0  0  0  0  0  0  0
    6.3896    1.7780    0.0000 C   0  0  0  0  0  0  0  0  0  0  0  0
    7.6897    2.5261    0.0000 O   0  0  0  0  0  0  0  0  0  0  0  0
    5.0917    2.5299    0.0000 O   0  0  0  0  0  0  0  0  0  0  0  0
  1  2  1  0
  2  3  2  0
  2  4  1  0
  4  5  1  0
  5  6  1  0
  6  7  1  0
  7  8  1  0
  8  9  1  0
  9 10  1  0
 10 11  1  0
 11 12  1  0
 12 13  1  0
 13 14  1  0
 14 15  1  0
 15 16  1  0
 16 17  1  0
 17 18  1  0
 18 19  1  0
 19 20  1  0
 20 21  2  0
 20 22  1  0
  1 23  1  0
 23 24  1  1
 24 25  1  0
 25 26  1  0
 26 27  2  0
 26 28  1  0
 28 29  1  0
 29 30  1  0
 30 31  1  0
 31 32  1  0
 32 33  1  0
 33 34  1  0
 34 35  1  0
 35 36  1  0
 36 37  2  0
 36 38  1  0
 38 39  1  0
 39 40  1  0
 40 41  1  0
 41 42  1  0
 42 43  1  0
 43 44  1  0
 44 45  1  0
 45 46  1  0
 46 47  2  0
 46 48  1  0
 48 49  1  0
 49 50  1  0
 50 51  1  0
 51 52  1  0
 52 53  1  0
 53 54  1  6
 53 55  1  0
 55 56  2  0
 55 57  1  0
 23 58  1  0
 58 59  2  0
 58 60  1  0
M  END
>  <rName>  (2457) 
Q0005

>  <PQ_SYMBOL>  (2457) 
Q0005

>  <FULL_NAME>  (2457) 
Lysine, semaglutide-

>  <IUPAC_CONDENSED>  (2457) 


>  <IUPAC>  (2457) 
17-(((2S)-5-((2-(2-(2-((2-(2-(2-(((5S)-5-amino-6-hydroxy-6-oxohexyl)amino)-2-oxoethoxy)ethoxy)ethyl)amino)-2-oxoethoxy)ethoxy)ethyl)amino)-1-hydroxy-1,5-dioxopentan-2-yl)carbamoyl)heptadecanoic acid

>  <TYPE>  (2457) 
Backbone

>  <CLASS>  (2457) 
alpha

>  <ANALOG>  (2457) 
Gln

>  <MOL_WT>  (2457) 
862.0719999999998

>  <LOGP>  (2457) 
2.65940000000001

>  <TPSA>  (2457) 
291.24

>  <POPULARITY>  (2457) 
2.8

>  <PROTECTED>  (2457) 
TRUE

>  <SMILES>  (2457) 
N(C(=O)CCCCCCCCCCCCCCCCC(=O)O)[C@@H](CCC(=O)NCCOCCOCC(=O)NCCOCCOCC(=O)NCCCC[C@H](N)C(=O)O)C(=O)O

>  <INCHIKEY>  (2457) 
QDUKXQMKBZEBHC-HEVIKAOCSA-N

$$$$
aFmocGaba
     RDKit          2D

 24 26  0  0  0  0  0  0  0  0999 V2000
   -3.1886    1.6275    0.0000 N   0  0  0  0  0  0  0  0  0  0  0  0
   -3.3607    0.1374    0.0000 C   0  0  0  0  0  0  0  0  0  0  0  0
   -2.1563   -0.7567    0.0000 C   0  0  0  0  0  0  0  0  0  0  0  0
   -2.3284   -2.2468    0.0000 O   0  0  0  0  0  0  0  0  0  0  0  0
   -0.7798   -0.1607    0.0000 O   0  0  0  0  0  0  0  0  0  0  0  0
    0.4246   -1.0548    0.0000 C   0  0  0  0  0  0  0  0  0  0  0  0
    1.8011   -0.4588    0.0000 C   0  0  0  0  0  0  0  0  0  0  0  0
    3.0924   -1.2221    0.0000 C   0  0  0  0  0  0  0  0  0  0  0  0
    3.3891   -2.6925    0.0000 C   0  0  0  0  0  0  0  0  0  0  0  0
    4.8109   -3.1706    0.0000 C   0  0  0  0  0  0  0  0  0  0  0  0
    5.9359   -2.1785    0.0000 C   0  0  0  0  0  0  0  0  0  0  0  0
    5.6391   -0.7081    0.0000 C   0  0  0  0  0  0  0  0  0  0  0  0
    4.2174   -0.2299    0.0000 C   0  0  0  0  0  0  0  0  0  0  0  0
    3.6214    1.1466    0.0000 C   0  0  0  0  0  0  0  0  0  0  0  0
    4.2455    2.5105    0.0000 C   0  0  0  0  0  0  0  0  0  0  0  0
    3.3764    3.7331    0.0000 C   0  0  0  0  0  0  0  0  0  0  0  0
    1.8831    3.5916    0.0000 C   0  0  0  0  0  0  0  0  0  0  0  0
    1.2589    2.2277    0.0000 C   0  0  0  0  0  0  0  0  0  0  0  0
    2.1281    1.0051    0.0000 C   0  0  0  0  0  0  0  0  0  0  0  0
   -4.7372   -0.4585    0.0000 C   0  0  0  0  0  0  0  0  0  0  0  0
   -5.9416    0.4356    0.0000 C   0  0  0  0  0  0  0  0  0  0  0  0
   -7.3181   -0.1604    0.0000 C   0  0  0  0  0  0  0  0  0  0  0  0
   -7.4903   -1.6505    0.0000 O   0  0  0  0  0  0  0  0  0  0  0  0
   -8.5225    0.7337    0.0000 O   0  0  0  0  0  0  0  0  0  0  0  0
  2  1  1  6
  2  3  1  0
  3  4  2  0
  3  5  1  0
  5  6  1  0
  6  7  1  0
  7  8  1  0
  8  9  2  0
  9 10  1  0
 10 11  2  0
 11 12  1  0
 12 13  2  0
 13 14  1  0
 14 15  2  0
 15 16  1  0
 16 17  2  0
 17 18  1  0
 18 19  2  0
  2 20  1  0
 20 21  1  0
 21 22  1  0
 22 23  2  0
 22 24  1  0
 13  8  1  0
 19  7  1  0
 19 14  1  0
M  END
>  <rName>  (2458) 
aFmocGaba

>  <PQ_SYMBOL>  (2458) 
aFmocGaba

>  <FULL_NAME>  (2458) 
(4S)-4-amino-5-(9H-fluoren-9-ylmethoxy)-5-oxopentanoic acid

>  <IUPAC_CONDENSED>  (2458) 
aFmocGaba

>  <IUPAC>  (2458) 
(4S)-4-amino-4-((((tricyclo[7.4.0.0^{2,7}]trideca-1(13),2,4,6,9,11-hexaen-8-yl)methyl)oxy)carbonyl)butanoic acid

>  <TYPE>  (2458) 
Backbone

>  <CLASS>  (2458) 
gamma

>  <ANALOG>  (2458) 
X

>  <MOL_WT>  (2458) 
325.36400000000015

>  <LOGP>  (2458) 
2.5341999999999993

>  <TPSA>  (2458) 
89.62000000000002

>  <POPULARITY>  (2458) 
2.9

>  <PROTECTED>  (2458) 
TRUE

>  <SMILES>  (2458) 
N[C@H](C(=O)OCC2(c1(ccccc1c3(ccccc23))))CCC(=O)O

>  <INCHIKEY>  (2458) 
RHOZHSSHUNDYGQ-KRWDZBQOSA-N

$$$$
Thr_PyranoseNAc3OAc_RRSR
     RDKit          2D

 31 31  0  0  0  0  0  0  0  0999 V2000
   -1.9375    1.8600    0.0000 N   0  0  0  0  0  0  0  0  0  0  0  0
   -3.3715    1.4198    0.0000 C   0  0  0  0  0  0  0  0  0  0  0  0
   -3.7073   -0.0421    0.0000 C   0  0  0  0  0  0  0  0  0  0  0  0
   -2.6091   -1.0639    0.0000 O   0  0  0  0  0  0  0  0  0  0  0  0
   -1.1752   -0.6237    0.0000 C   0  0  0  0  0  0  0  0  0  0  0  0
   -0.8394    0.8382    0.0000 O   0  0  0  0  0  0  0  0  0  0  0  0
    0.5946    1.2784    0.0000 C   0  0  0  0  0  0  0  0  0  0  0  0
    0.9304    2.7403    0.0000 C   0  0  0  0  0  0  0  0  0  0  0  0
    2.3644    3.1805    0.0000 O   0  0  0  0  0  0  0  0  0  0  0  0
    2.7002    4.6424    0.0000 C   0  0  0  0  0  0  0  0  0  0  0  0
    1.6020    5.6642    0.0000 O   0  0  0  0  0  0  0  0  0  0  0  0
    4.1341    5.0825    0.0000 C   0  0  0  0  0  0  0  0  0  0  0  0
    1.6928    0.2566    0.0000 C   0  0  0  0  0  0  0  0  0  0  0  0
    3.1267    0.6968    0.0000 O   0  0  0  0  0  0  0  0  0  0  0  0
    4.2249   -0.3250    0.0000 C   0  0  0  0  0  0  0  0  0  0  0  0
    3.8891   -1.7870    0.0000 O   0  0  0  0  0  0  0  0  0  0  0  0
    5.6589    0.1151    0.0000 C   0  0  0  0  0  0  0  0  0  0  0  0
    1.3570   -1.2053    0.0000 C   0  0  0  0  0  0  0  0  0  0  0  0
    2.4551   -2.2271    0.0000 O   0  0  0  0  0  0  0  0  0  0  0  0
    2.1194   -3.6890    0.0000 C   0  0  0  0  0  0  0  0  0  0  0  0
    0.6854   -4.1292    0.0000 O   0  0  0  0  0  0  0  0  0  0  0  0
    3.2175   -4.7108    0.0000 C   0  0  0  0  0  0  0  0  0  0  0  0
   -0.0770   -1.6455    0.0000 C   0  0  0  0  0  0  0  0  0  0  0  0
   -0.4128   -3.1074    0.0000 N   0  0  0  0  0  0  0  0  0  0  0  0
   -1.8468   -3.5476    0.0000 C   0  0  0  0  0  0  0  0  0  0  0  0
   -2.9449   -2.5258    0.0000 O   0  0  0  0  0  0  0  0  0  0  0  0
   -2.1825   -5.0095    0.0000 C   0  0  0  0  0  0  0  0  0  0  0  0
   -5.1413   -0.4823    0.0000 C   0  0  0  0  0  0  0  0  0  0  0  0
   -4.4697    2.4416    0.0000 C   0  0  0  0  0  0  0  0  0  0  0  0
   -5.9036    2.0014    0.0000 O   0  0  0  0  0  0  0  0  0  0  0  0
   -4.1339    3.9035    0.0000 O   0  0  0  0  0  0  0  0  0  0  0  0
  2  1  1  1
  2  3  1  0
  3  4  1  0
  5  4  1  1
  5  6  1  0
  6  7  1  0
  7  8  1  6
  8  9  1  0
  9 10  1  0
 10 11  2  0
 10 12  1  0
  7 13  1  0
 13 14  1  6
 14 15  1  0
 15 16  2  0
 15 17  1  0
 13 18  1  0
 18 19  1  6
 19 20  1  0
 20 21  2  0
 20 22  1  0
 18 23  1  0
 23 24  1  1
 24 25  1  0
 25 26  2  0
 25 27  1  0
  3 28  1  6
  2 29  1  0
 29 30  2  0
 29 31  1  0
 23  5  1  0
M  END
>  <rName>  (2459) 
Thr_PyranoseNAc3OAc_RRSR

>  <PQ_SYMBOL>  (2459) 
Thr_PyranoseNAc3OAc_RRSR

>  <FULL_NAME>  (2459) 
(2S,3R)-3-[(2S,3R,4R,5R,6R)-3-acetamido-4,5-diacetyloxy-6-(acetyloxymethyl)oxan-2-yl]oxy-2-aminobutanoic acid

>  <IUPAC_CONDENSED>  (2459) 
Thr(Pyranose-NAc-3OAc(RRSR))

>  <IUPAC>  (2459) 
(2S,3R)-3-(((2S,3R,4R,5R,6R)-6-((acetoxy)methyl)-3-methylcarbonylamino-4,5-bis(acetoxy)-oxan-2-yl)oxy)-2-aminobutanoic acid

>  <TYPE>  (2459) 
Backbone

>  <CLASS>  (2459) 
alpha

>  <ANALOG>  (2459) 
Thr

>  <MOL_WT>  (2459) 
448.4250000000002

>  <LOGP>  (2459) 
-1.540499999999994

>  <TPSA>  (2459) 
189.78

>  <POPULARITY>  (2459) 
3

>  <PROTECTED>  (2459) 
TRUE

>  <SMILES>  (2459) 
N[C@@H]([C@H](O[C@H]1(O[C@H](COC(=O)C)[C@H](OC(=O)C)[C@H](OC(=O)C)[C@H]1NC(=O)C))C)C(=O)O

>  <INCHIKEY>  (2459) 
FKLRVDCXGWJCEC-IDCTWFJGSA-N

$$$$
bAla_3SBn_2Br
     RDKit          2D

 14 14  0  0  0  0  0  0  0  0999 V2000
   -1.2485    1.3349    0.0000 N   0  0  0  0  0  0  0  0  0  0  0  0
   -1.3063   -0.1640    0.0000 C   0  0  0  0  0  0  0  0  0  0  0  0
   -0.0372   -0.9636    0.0000 C   0  0  0  0  0  0  0  0  0  0  0  0
    1.2898   -0.2643    0.0000 C   0  0  0  0  0  0  0  0  0  0  0  0
    1.3477    1.2346    0.0000 C   0  0  0  0  0  0  0  0  0  0  0  0
    2.6747    1.9339    0.0000 C   0  0  0  0  0  0  0  0  0  0  0  0
    3.9438    1.1344    0.0000 C   0  0  0  0  0  0  0  0  0  0  0  0
    3.8859   -0.3645    0.0000 C   0  0  0  0  0  0  0  0  0  0  0  0
    2.5589   -1.0638    0.0000 C   0  0  0  0  0  0  0  0  0  0  0  0
    2.5010   -2.5627    0.0000 Br  0  0  0  0  0  0  0  0  0  0  0  0
   -2.6334   -0.8633    0.0000 C   0  0  0  0  0  0  0  0  0  0  0  0
   -3.9025   -0.0637    0.0000 C   0  0  0  0  0  0  0  0  0  0  0  0
   -3.8446    1.4351    0.0000 O   0  0  0  0  0  0  0  0  0  0  0  0
   -5.2295   -0.7631    0.0000 O   0  0  0  0  0  0  0  0  0  0  0  0
  2  1  1  1
  2  3  1  0
  3  4  1  0
  4  5  2  0
  5  6  1  0
  6  7  2  0
  7  8  1  0
  8  9  2  0
  9 10  1  0
  2 11  1  0
 11 12  1  0
 12 13  2  0
 12 14  1  0
  9  4  1  0
M  END
>  <rName>  (2460) 
bAla_3SBn_2Br

>  <PQ_SYMBOL>  (2460) 
bAla_3SBn_2Br

>  <FULL_NAME>  (2460) 
(3S)-3-amino-4-(2-bromophenyl)butanoic Acid

>  <IUPAC_CONDENSED>  (2460) 
bAla(3S-Bn(2-Br))

>  <IUPAC>  (2460) 
(3S)-3-amino-4-(2-bromophenyl)butanoic acid

>  <TYPE>  (2460) 
Backbone

>  <CLASS>  (2460) 
beta

>  <ANALOG>  (2460) 
Phe

>  <MOL_WT>  (2460) 
258.11499999999995

>  <LOGP>  (2460) 
1.7936000000000003

>  <TPSA>  (2460) 
63.32000000000001

>  <POPULARITY>  (2460) 
4.4

>  <PROTECTED>  (2460) 
TRUE

>  <SMILES>  (2460) 
N[C@@H](Cc1(ccccc1Br))CC(=O)O

>  <INCHIKEY>  (2460) 
GKIOKKDLKBJXIS-QMMMGPOBSA-N

$$$$
piperidin-3-ylAc
     RDKit          2D

 10 10  0  0  0  0  0  0  0  0999 V2000
    2.7213   -0.9820    0.0000 N   0  0  0  0  0  0  0  0  0  0  0  0
    1.3040   -1.4730    0.0000 C   0  0  0  0  0  0  0  0  0  0  0  0
    0.1701   -0.4910    0.0000 C   0  0  0  0  0  0  0  0  0  0  0  0
    0.4536    0.9820    0.0000 C   0  0  0  0  0  0  0  0  0  0  0  0
    1.8709    1.4730    0.0000 C   0  0  0  0  0  0  0  0  0  0  0  0
    3.0048    0.4910    0.0000 C   0  0  0  0  0  0  0  0  0  0  0  0
   -1.2473   -0.9820    0.0000 C   0  0  0  0  0  0  0  0  0  0  0  0
   -2.3812    0.0000    0.0000 C   0  0  0  0  0  0  0  0  0  0  0  0
   -2.0977    1.4730    0.0000 O   0  0  0  0  0  0  0  0  0  0  0  0
   -3.7985   -0.4910    0.0000 O   0  0  0  0  0  0  0  0  0  0  0  0
  1  2  1  0
  2  3  1  0
  3  4  1  0
  4  5  1  0
  5  6  1  0
  3  7  1  0
  7  8  1  0
  8  9  2  0
  8 10  1  0
  6  1  1  0
M  END
>  <rName>  (2461) 
piperidin-3-ylAc

>  <PQ_SYMBOL>  (2461) 
piperidin-3-ylAc

>  <FULL_NAME>  (2461) 
3-Piperidineacetic acid

>  <IUPAC_CONDENSED>  (2461) 
piperidin-3-ylAc

>  <IUPAC>  (2461) 
2-(piperidin-3-yl)acetic acid

>  <TYPE>  (2461) 
Backbone

>  <CLASS>  (2461) 
gamma

>  <ANALOG>  (2461) 
Pro

>  <MOL_WT>  (2461) 
143.186

>  <LOGP>  (2461) 
0.46069999999999983

>  <TPSA>  (2461) 
49.33

>  <POPULARITY>  (2461) 
11.8

>  <PROTECTED>  (2461) 
TRUE

>  <SMILES>  (2461) 
N1CC(CCC1)CC(=O)O

>  <INCHIKEY>  (2461) 
WKXRHAACRPUBIC-UHFFFAOYSA-N

$$$$
bAla_3RBn_2Br
     RDKit          2D

 14 14  0  0  0  0  0  0  0  0999 V2000
   -1.2485    1.3349    0.0000 N   0  0  0  0  0  0  0  0  0  0  0  0
   -1.3063   -0.1640    0.0000 C   0  0  0  0  0  0  0  0  0  0  0  0
   -0.0372   -0.9636    0.0000 C   0  0  0  0  0  0  0  0  0  0  0  0
    1.2898   -0.2643    0.0000 C   0  0  0  0  0  0  0  0  0  0  0  0
    1.3477    1.2346    0.0000 C   0  0  0  0  0  0  0  0  0  0  0  0
    2.6747    1.9339    0.0000 C   0  0  0  0  0  0  0  0  0  0  0  0
    3.9438    1.1344    0.0000 C   0  0  0  0  0  0  0  0  0  0  0  0
    3.8859   -0.3645    0.0000 C   0  0  0  0  0  0  0  0  0  0  0  0
    2.5589   -1.0638    0.0000 C   0  0  0  0  0  0  0  0  0  0  0  0
    2.5010   -2.5627    0.0000 Br  0  0  0  0  0  0  0  0  0  0  0  0
   -2.6334   -0.8633    0.0000 C   0  0  0  0  0  0  0  0  0  0  0  0
   -3.9025   -0.0637    0.0000 C   0  0  0  0  0  0  0  0  0  0  0  0
   -3.8446    1.4351    0.0000 O   0  0  0  0  0  0  0  0  0  0  0  0
   -5.2295   -0.7631    0.0000 O   0  0  0  0  0  0  0  0  0  0  0  0
  2  1  1  6
  2  3  1  0
  3  4  1  0
  4  5  2  0
  5  6  1  0
  6  7  2  0
  7  8  1  0
  8  9  2  0
  9 10  1  0
  2 11  1  0
 11 12  1  0
 12 13  2  0
 12 14  1  0
  9  4  1  0
M  END
>  <rName>  (2462) 
bAla_3RBn_2Br

>  <PQ_SYMBOL>  (2462) 
bAla_3RBn_2Br

>  <FULL_NAME>  (2462) 
(3R)-3-amino-4-(2-bromophenyl)butanoic acid

>  <IUPAC_CONDENSED>  (2462) 
bAla(3R-Bn(2-Br))

>  <IUPAC>  (2462) 
(3R)-3-amino-4-(2-bromophenyl)butanoic acid

>  <TYPE>  (2462) 
Backbone

>  <CLASS>  (2462) 
beta

>  <ANALOG>  (2462) 
Phe

>  <MOL_WT>  (2462) 
258.11499999999995

>  <LOGP>  (2462) 
1.7936000000000003

>  <TPSA>  (2462) 
63.32000000000001

>  <POPULARITY>  (2462) 
4.4

>  <PROTECTED>  (2462) 
TRUE

>  <SMILES>  (2462) 
N[C@H](Cc1(ccccc1Br))CC(=O)O

>  <INCHIKEY>  (2462) 
GKIOKKDLKBJXIS-MRVPVSSYSA-N

$$$$
cis-1-aminoindan-2-CO2H_S
     RDKit          2D

 13 14  0  0  0  0  0  0  0  0999 V2000
   -1.0632    2.3910    0.0000 N   0  0  0  0  0  0  0  0  0  0  0  0
   -0.5351    0.9871    0.0000 C   0  0  0  0  0  0  0  0  0  0  0  0
   -1.3605   -0.2654    0.0000 C   0  0  0  0  0  0  0  0  0  0  0  0
   -0.4244   -1.4375    0.0000 C   0  0  0  0  0  0  0  0  0  0  0  0
    0.9796   -0.9093    0.0000 C   0  0  0  0  0  0  0  0  0  0  0  0
    2.3115   -1.5993    0.0000 C   0  0  0  0  0  0  0  0  0  0  0  0
    3.5750   -0.7908    0.0000 C   0  0  0  0  0  0  0  0  0  0  0  0
    3.5065    0.7076    0.0000 C   0  0  0  0  0  0  0  0  0  0  0  0
    2.1746    1.3976    0.0000 C   0  0  0  0  0  0  0  0  0  0  0  0
    0.9112    0.5891    0.0000 C   0  0  0  0  0  0  0  0  0  0  0  0
   -2.8589   -0.3338    0.0000 C   0  0  0  0  0  0  0  0  0  0  0  0
   -3.5489   -1.6657    0.0000 O   0  0  0  0  0  0  0  0  0  0  0  0
   -3.6674    0.9296    0.0000 O   0  0  0  0  0  0  0  0  0  0  0  0
  2  1  1  1
  2  3  1  0
  3  4  1  0
  4  5  1  0
  5  6  2  0
  6  7  1  0
  7  8  2  0
  8  9  1  0
  9 10  2  0
  3 11  1  1
 11 12  2  0
 11 13  1  0
 10  2  1  0
 10  5  1  0
M  END
>  <rName>  (2463) 
cis-1-aminoindan-2-CO2H_S

>  <PQ_SYMBOL>  (2463) 
cis-1-aminoindan-2-CO2H_S

>  <FULL_NAME>  (2463) 
cis-1-Amino-indan-2-carboxylic acid

>  <IUPAC_CONDENSED>  (2463) 
cis-1-aminoindan-2-CO2H(S)

>  <IUPAC>  (2463) 
(1R,2R)-1-aminoindane-2-carboxylic acid

>  <TYPE>  (2463) 
Backbone

>  <CLASS>  (2463) 
beta

>  <ANALOG>  (2463) 
X

>  <MOL_WT>  (2463) 
177.20299999999997

>  <LOGP>  (2463) 
0.9433

>  <TPSA>  (2463) 
63.32000000000001

>  <POPULARITY>  (2463) 
4.7

>  <PROTECTED>  (2463) 
TRUE

>  <SMILES>  (2463) 
N[C@@H]1[C@@H](Cc2(ccccc12))C(=O)O

>  <INCHIKEY>  (2463) 
DNDUYUYIRYKACW-BDAKNGLRSA-N

$$$$
bAla_2Bn
     RDKit          2D

 13 13  0  0  0  0  0  0  0  0999 V2000
   -4.2270   -0.4748    0.0000 N   0  0  0  0  0  0  0  0  0  0  0  0
   -2.9684   -1.2908    0.0000 C   0  0  0  0  0  0  0  0  0  0  0  0
   -1.6324   -0.6089    0.0000 C   0  0  0  0  0  0  0  0  0  0  0  0
   -0.3738   -1.4249    0.0000 C   0  0  0  0  0  0  0  0  0  0  0  0
    0.9622   -0.7430    0.0000 C   0  0  0  0  0  0  0  0  0  0  0  0
    1.0396    0.7550    0.0000 C   0  0  0  0  0  0  0  0  0  0  0  0
    2.3756    1.4370    0.0000 C   0  0  0  0  0  0  0  0  0  0  0  0
    3.6342    0.6210    0.0000 C   0  0  0  0  0  0  0  0  0  0  0  0
    3.5568   -0.8770    0.0000 C   0  0  0  0  0  0  0  0  0  0  0  0
    2.2208   -1.5590    0.0000 C   0  0  0  0  0  0  0  0  0  0  0  0
   -1.5550    0.8891    0.0000 C   0  0  0  0  0  0  0  0  0  0  0  0
   -0.2190    1.5711    0.0000 O   0  0  0  0  0  0  0  0  0  0  0  0
   -2.8136    1.7052    0.0000 O   0  0  0  0  0  0  0  0  0  0  0  0
  1  2  1  0
  2  3  1  0
  3  4  1  0
  4  5  1  0
  5  6  2  0
  6  7  1  0
  7  8  2  0
  8  9  1  0
  9 10  2  0
  3 11  1  0
 11 12  2  0
 11 13  1  0
 10  5  1  0
M  END
>  <rName>  (2464) 
bAla_2Bn

>  <PQ_SYMBOL>  (2464) 
bAla_2Bn

>  <FULL_NAME>  (2464) 
3-Amino-2-benzylpropanoic acid

>  <IUPAC_CONDENSED>  (2464) 
bAla(2-Bn)

>  <IUPAC>  (2464) 
3-amino-2-benzylpropanoic acid

>  <TYPE>  (2464) 
Backbone

>  <CLASS>  (2464) 
beta

>  <ANALOG>  (2464) 
Phe

>  <MOL_WT>  (2464) 
179.21899999999997

>  <LOGP>  (2464) 
0.8885999999999998

>  <TPSA>  (2464) 
63.32000000000001

>  <POPULARITY>  (2464) 
14.6

>  <PROTECTED>  (2464) 
TRUE

>  <SMILES>  (2464) 
NCC(Cc1(ccccc1))C(=O)O

>  <INCHIKEY>  (2464) 
DJYVEBBGKNAHKE-UHFFFAOYSA-N

$$$$
3-amino-bicyclo221heptane-2-CO2H_1R2S_3R_4S
     RDKit          2D

 11 12  0  0  0  0  0  0  0  0999 V2000
    0.4432    2.4610    0.0000 N   0  0  0  0  0  0  0  0  0  0  0  0
   -0.2528    1.1323    0.0000 C   0  0  0  0  0  0  0  0  0  0  0  0
    0.4130   -0.2118    0.0000 C   0  0  0  0  0  0  0  0  0  0  0  0
   -0.6595   -1.2605    0.0000 C   0  0  0  0  0  0  0  0  0  0  0  0
   -2.1436   -1.4784    0.0000 C   0  0  0  0  0  0  0  0  0  0  0  0
   -2.8095   -0.1343    0.0000 C   0  0  0  0  0  0  0  0  0  0  0  0
   -1.7369    0.9143    0.0000 C   0  0  0  0  0  0  0  0  0  0  0  0
   -0.4082    0.2183    0.0000 C   0  0  0  0  0  0  0  0  0  0  0  0
    1.8918   -0.4632    0.0000 C   0  0  0  0  0  0  0  0  0  0  0  0
    2.8489    0.6918    0.0000 O   0  0  0  0  0  0  0  0  0  0  0  0
    2.4136   -1.8695    0.0000 O   0  0  0  0  0  0  0  0  0  0  0  0
  2  1  1  1
  2  3  1  0
  3  4  1  0
  4  5  1  6
  5  6  1  0
  7  6  1  6
  7  8  1  0
  3  9  1  1
  9 10  2  0
  9 11  1  0
  7  2  1  0
  8  4  1  0
M  END
>  <rName>  (2465) 
3-amino-bicyclo221heptane-2-CO2H_1R2S_3R_4S

>  <PQ_SYMBOL>  (2465) 
3-amino-bicyclo221heptane-2-CO2H_1R2S_3R_4S

>  <FULL_NAME>  (2465) 
(1R,2S,3R,4S)-3-Aminobicyclo[2.2.1]heptane-2-carboxylic acid

>  <IUPAC_CONDENSED>  (2465) 
3-amino-bicyclo[2.2.1]heptane-2-CO2H(1R,2S,3R,4S)

>  <IUPAC>  (2465) 
(1R,2S,3R,4S)-3-aminobicyclo[2.2.1]heptane-2-carboxylic acid

>  <TYPE>  (2465) 
Backbone

>  <CLASS>  (2465) 
beta

>  <ANALOG>  (2465) 
X

>  <MOL_WT>  (2465) 
155.197

>  <LOGP>  (2465) 
0.44439999999999985

>  <TPSA>  (2465) 
63.32000000000001

>  <POPULARITY>  (2465) 
7.5

>  <PROTECTED>  (2465) 
TRUE

>  <SMILES>  (2465) 
N[C@H]1[C@H]([C@@H]2(CC[C@H]1C2))C(=O)O

>  <INCHIKEY>  (2465) 
JSYLGUSANAWARQ-JRTVQGFMSA-N

$$$$
bPro_R_4SPh
     RDKit          2D

 14 15  0  0  0  0  0  0  0  0999 V2000
   -2.5667    2.2179    0.0000 N   0  0  0  0  0  0  0  0  0  0  0  0
   -2.9834    0.7769    0.0000 C   0  0  0  0  0  0  0  0  0  0  0  0
   -1.7417   -0.0646    0.0000 C   0  0  0  0  0  0  0  0  0  0  0  0
   -0.5576    0.8562    0.0000 C   0  0  0  0  0  0  0  0  0  0  0  0
   -1.0675    2.2669    0.0000 C   0  0  0  0  0  0  0  0  0  0  0  0
    0.8833    0.4396    0.0000 C   0  0  0  0  0  0  0  0  0  0  0  0
    1.2430   -1.0167    0.0000 C   0  0  0  0  0  0  0  0  0  0  0  0
    2.6840   -1.4333    0.0000 C   0  0  0  0  0  0  0  0  0  0  0  0
    3.7653   -0.3937    0.0000 C   0  0  0  0  0  0  0  0  0  0  0  0
    3.4056    1.0625    0.0000 C   0  0  0  0  0  0  0  0  0  0  0  0
    1.9647    1.4792    0.0000 C   0  0  0  0  0  0  0  0  0  0  0  0
   -1.6927   -1.5638    0.0000 C   0  0  0  0  0  0  0  0  0  0  0  0
   -0.3698   -2.2710    0.0000 O   0  0  0  0  0  0  0  0  0  0  0  0
   -2.9665   -2.3559    0.0000 O   0  0  0  0  0  0  0  0  0  0  0  0
  1  2  1  0
  2  3  1  0
  3  4  1  0
  4  5  1  0
  4  6  1  6
  6  7  2  0
  7  8  1  0
  8  9  2  0
  9 10  1  0
 10 11  2  0
  3 12  1  1
 12 13  2  0
 12 14  1  0
  5  1  1  0
 11  6  1  0
M  END
>  <rName>  (2466) 
bPro_R_4SPh

>  <PQ_SYMBOL>  (2466) 
bPro_R_4SPh

>  <FULL_NAME>  (2466) 
(3R,4S)-4-Phenylpyrrolidine-3-carboxylic acid

>  <IUPAC_CONDENSED>  (2466) 
bPro(R,4S-Ph)

>  <IUPAC>  (2466) 
(3R,4S)-4-phenylpyrrolidine-3-carboxylic acid

>  <TYPE>  (2466) 
Backbone

>  <CLASS>  (2466) 
beta

>  <ANALOG>  (2466) 
Pro

>  <MOL_WT>  (2466) 
191.23

>  <LOGP>  (2466) 
1.0742

>  <TPSA>  (2466) 
49.33

>  <POPULARITY>  (2466) 
9.2

>  <PROTECTED>  (2466) 
TRUE

>  <SMILES>  (2466) 
N1C[C@@H]([C@H](C1)c2(ccccc2))C(=O)O

>  <INCHIKEY>  (2466) 
XTJDGOQYFKHEJR-ZJUUUORDSA-N

$$$$
Ph-bAla
     RDKit          2D

 12 13  0  0  0  0  0  0  0  0999 V2000
    0.2998    2.2733    0.0000 N   0  0  0  0  0  0  0  0  0  0  0  0
   -1.1360    1.8391    0.0000 C   0  0  0  0  0  0  0  0  0  0  0  0
   -1.1668    0.3395    0.0000 C   0  0  0  0  0  0  0  0  0  0  0  0
    0.2499   -0.1533    0.0000 C   0  0  0  0  0  0  0  0  0  0  0  0
    0.8318   -1.5358    0.0000 C   0  0  0  0  0  0  0  0  0  0  0  0
    2.3200   -1.7232    0.0000 C   0  0  0  0  0  0  0  0  0  0  0  0
    3.2264   -0.5281    0.0000 C   0  0  0  0  0  0  0  0  0  0  0  0
    2.6446    0.8545    0.0000 C   0  0  0  0  0  0  0  0  0  0  0  0
    1.1563    1.0419    0.0000 C   0  0  0  0  0  0  0  0  0  0  0  0
   -2.3982   -0.5171    0.0000 C   0  0  0  0  0  0  0  0  0  0  0  0
   -2.2721   -2.0118    0.0000 O   0  0  0  0  0  0  0  0  0  0  0  0
   -3.7557    0.1210    0.0000 O   0  0  0  0  0  0  0  0  0  0  0  0
  1  2  1  0
  2  3  1  0
  3  4  1  0
  4  5  2  0
  5  6  1  0
  6  7  2  0
  7  8  1  0
  8  9  2  0
  3 10  1  0
 10 11  2  0
 10 12  1  0
  9  1  1  0
  9  4  1  0
M  END
>  <rName>  (2467) 
Ph-bAla

>  <PQ_SYMBOL>  (2467) 
Ph-bAla

>  <FULL_NAME>  (2467) 
Indoline-3-carboxylic acid

>  <IUPAC_CONDENSED>  (2467) 
Ph-bAla

>  <IUPAC>  (2467) 
indoline-3-carboxylic acid

>  <TYPE>  (2467) 
Backbone

>  <CLASS>  (2467) 
beta

>  <ANALOG>  (2467) 
Pro

>  <MOL_WT>  (2467) 
163.17599999999996

>  <LOGP>  (2467) 
1.2802999999999998

>  <TPSA>  (2467) 
49.33

>  <POPULARITY>  (2467) 
9.7

>  <PROTECTED>  (2467) 
TRUE

>  <SMILES>  (2467) 
N1CC(c2(ccccc12))C(=O)O

>  <INCHIKEY>  (2467) 
RXHBTEVUVWXEBO-UHFFFAOYSA-N

$$$$
bAla_3RBn_3Br
     RDKit          2D

 14 14  0  0  0  0  0  0  0  0999 V2000
   -1.4366    1.2366    0.0000 N   0  0  0  0  0  0  0  0  0  0  0  0
   -1.4962   -0.2622    0.0000 C   0  0  0  0  0  0  0  0  0  0  0  0
   -0.2280   -1.0632    0.0000 C   0  0  0  0  0  0  0  0  0  0  0  0
    1.0998   -0.3654    0.0000 C   0  0  0  0  0  0  0  0  0  0  0  0
    1.1594    1.1334    0.0000 C   0  0  0  0  0  0  0  0  0  0  0  0
    2.4872    1.8312    0.0000 C   0  0  0  0  0  0  0  0  0  0  0  0
    3.7554    1.0302    0.0000 C   0  0  0  0  0  0  0  0  0  0  0  0
    3.6958   -0.4686    0.0000 C   0  0  0  0  0  0  0  0  0  0  0  0
    4.9641   -1.2696    0.0000 Br  0  0  0  0  0  0  0  0  0  0  0  0
    2.3680   -1.1664    0.0000 C   0  0  0  0  0  0  0  0  0  0  0  0
   -2.8240   -0.9600    0.0000 C   0  0  0  0  0  0  0  0  0  0  0  0
   -4.0922   -0.1590    0.0000 C   0  0  0  0  0  0  0  0  0  0  0  0
   -4.0327    1.3398    0.0000 O   0  0  0  0  0  0  0  0  0  0  0  0
   -5.4200   -0.8568    0.0000 O   0  0  0  0  0  0  0  0  0  0  0  0
  2  1  1  6
  2  3  1  0
  3  4  1  0
  4  5  2  0
  5  6  1  0
  6  7  2  0
  7  8  1  0
  8  9  1  0
  8 10  2  0
  2 11  1  0
 11 12  1  0
 12 13  2  0
 12 14  1  0
 10  4  1  0
M  END
>  <rName>  (2468) 
bAla_3RBn_3Br

>  <PQ_SYMBOL>  (2468) 
bAla_3RBn_3Br

>  <FULL_NAME>  (2468) 
(R)-3-Amino-4-(3-bromophenyl)butanoic acid

>  <IUPAC_CONDENSED>  (2468) 
bAla(3R-Bn(3-Br))

>  <IUPAC>  (2468) 
(3R)-3-amino-4-(3-bromophenyl)butanoic acid

>  <TYPE>  (2468) 
Backbone

>  <CLASS>  (2468) 
beta

>  <ANALOG>  (2468) 
Phe

>  <MOL_WT>  (2468) 
258.11499999999995

>  <LOGP>  (2468) 
1.7936

>  <TPSA>  (2468) 
63.32000000000001

>  <POPULARITY>  (2468) 
5.8

>  <PROTECTED>  (2468) 
TRUE

>  <SMILES>  (2468) 
N[C@H](Cc1(cccc(Br)c1))CC(=O)O

>  <INCHIKEY>  (2468) 
RAIGQDRULUGHDH-SECBINFHSA-N

$$$$
D-Abu_ethynyl
     RDKit          2D

  9  8  0  0  0  0  0  0  0  0999 V2000
   -1.0341    1.9185    0.0000 N   0  0  0  0  0  0  0  0  0  0  0  0
   -0.9057    0.4240    0.0000 C   0  0  0  0  0  0  0  0  0  0  0  0
    0.4528   -0.2120    0.0000 C   0  0  0  0  0  0  0  0  0  0  0  0
    1.6829    0.6465    0.0000 C   0  0  0  0  0  0  0  0  0  0  0  0
    3.0414    0.0105    0.0000 C   0  0  0  0  0  0  0  0  0  0  0  0
    4.3999   -0.6255    0.0000 C   0  0  0  0  0  0  0  0  0  0  0  0
   -2.1357   -0.4345    0.0000 C   0  0  0  0  0  0  0  0  0  0  0  0
   -2.0072   -1.9290    0.0000 O   0  0  0  0  0  0  0  0  0  0  0  0
   -3.4942    0.2015    0.0000 O   0  0  0  0  0  0  0  0  0  0  0  0
  2  1  1  6
  2  3  1  0
  3  4  1  0
  4  5  1  0
  5  6  3  0
  2  7  1  0
  7  8  2  0
  7  9  1  0
M  END
>  <rName>  (2469) 
D-Abu_ethynyl

>  <PQ_SYMBOL>  (2469) 
D-Abu_ethynyl

>  <FULL_NAME>  (2469) 
5-Hexynoic acid, 2-amino-, (2R)-

>  <IUPAC_CONDENSED>  (2469) 
D-Abu(ethynyl)

>  <IUPAC>  (2469) 
(2R)-2-aminohex-5-ynoic acid

>  <TYPE>  (2469) 
Backbone

>  <CLASS>  (2469) 
alpha

>  <ANALOG>  (2469) 
Leu

>  <MOL_WT>  (2469) 
127.14299999999997

>  <LOGP>  (2469) 
-0.18829999999999997

>  <TPSA>  (2469) 
63.32000000000001

>  <POPULARITY>  (2469) 
3.5

>  <PROTECTED>  (2469) 
TRUE

>  <SMILES>  (2469) 
N[C@H](CCC#C)C(=O)O

>  <INCHIKEY>  (2469) 
SCGJGNWMYSYORS-RXMQYKEDSA-N

$$$$
D-Pro_4SN3
     RDKit          2D

 11 11  0  0  0  0  0  0  0  0999 V2000
    1.2535   -1.6430    0.0000 N   0  0  0  0  0  0  0  0  0  0  0  0
    1.2696   -0.1431    0.0000 C   0  0  0  0  0  0  0  0  0  0  0  0
   -0.1519    0.3357    0.0000 C   0  0  0  0  0  0  0  0  0  0  0  0
   -1.0466   -0.8682    0.0000 C   0  0  0  0  0  0  0  0  0  0  0  0
   -0.1780   -2.0912    0.0000 C   0  0  0  0  0  0  0  0  0  0  0  0
   -2.5465   -0.8521    0.0000 N   0  0  0  0  0  0  0  0  0  0  0  0
   -3.2825    0.4549    0.0000 N   0  0  0  0  0  0  0  0  0  0  0  0
   -4.0185    1.7619    0.0000 N   0  0  0  0  0  0  0  0  0  0  0  0
    2.4926    0.7255    0.0000 C   0  0  0  0  0  0  0  0  0  0  0  0
    2.3518    2.2189    0.0000 O   0  0  0  0  0  0  0  0  0  0  0  0
    3.8563    0.1007    0.0000 O   0  0  0  0  0  0  0  0  0  0  0  0
  1  2  1  0
  2  3  1  0
  3  4  1  0
  4  5  1  0
  4  6  1  1
  6  7  2  0
  7  8  2  0
  2  9  1  6
  9 10  2  0
  9 11  1  0
  5  1  1  0
M  CHG  2   7   1   8  -1
M  END
>  <rName>  (2470) 
D-Pro_4SN3

>  <PQ_SYMBOL>  (2470) 
D-Pro_4SN3

>  <FULL_NAME>  (2470) 
(2R,4S)-4-Azidopyrrolidine-2-carboxylic acid

>  <IUPAC_CONDENSED>  (2470) 
D-Pro(4S-N3)

>  <IUPAC>  (2470) 
(2R,4S)-4-azidopyrrolidine-2-carboxylic acid

>  <TYPE>  (2470) 
Backbone

>  <CLASS>  (2470) 
alpha

>  <ANALOG>  (2470) 
Pro

>  <MOL_WT>  (2470) 
156.14500000000004

>  <LOGP>  (2470) 
0.11179999999999962

>  <TPSA>  (2470) 
98.09000000000002

>  <POPULARITY>  (2470) 
6.1

>  <PROTECTED>  (2470) 
TRUE

>  <SMILES>  (2470) 
N1[C@H](C[C@@H](C1)N=[N+]=[N-])C(=O)O

>  <INCHIKEY>  (2470) 
PPRFZPZRQYPCER-IUYQGCFVSA-N

$$$$
24-methanoPro
     RDKit          2D

  9 10  0  0  0  0  0  0  0  0999 V2000
   -0.7161   -1.1407    0.0000 N   0  0  0  0  0  0  0  0  0  0  0  0
    0.2022    0.0454    0.0000 C   0  0  0  0  0  0  0  0  0  0  0  0
   -0.6421    1.2852    0.0000 C   0  0  0  0  0  0  0  0  0  0  0  0
   -2.0821    0.8653    0.0000 C   0  0  0  0  0  0  0  0  0  0  0  0
   -2.1278   -0.6340    0.0000 C   0  0  0  0  0  0  0  0  0  0  0  0
   -1.2379   -0.3745    0.0000 C   0  0  0  0  0  0  0  0  0  0  0  0
    1.7015   -0.0003    0.0000 C   0  0  0  0  0  0  0  0  0  0  0  0
    2.4907    1.2752    0.0000 O   0  0  0  0  0  0  0  0  0  0  0  0
    2.4116   -1.3216    0.0000 O   0  0  0  0  0  0  0  0  0  0  0  0
  1  2  1  0
  2  3  1  0
  3  4  1  0
  4  5  1  0
  4  6  1  0
  2  7  1  0
  7  8  2  0
  7  9  1  0
  5  1  1  0
  6  2  1  0
M  END
>  <rName>  (2471) 
24-methanoPro

>  <PQ_SYMBOL>  (2471) 
24-methanoPro

>  <FULL_NAME>  (2471) 
2,4-Methanoproline

>  <IUPAC_CONDENSED>  (2471) 
2,4-methanoPro

>  <IUPAC>  (2471) 
2-azabicyclo[2.1.1]hexane-1-carboxylic acid

>  <TYPE>  (2471) 
Backbone

>  <CLASS>  (2471) 
alpha

>  <ANALOG>  (2471) 
Pro

>  <MOL_WT>  (2471) 
127.14299999999999

>  <LOGP>  (2471) 
-0.17700000000000032

>  <TPSA>  (2471) 
49.33

>  <POPULARITY>  (2471) 
6.6

>  <PROTECTED>  (2471) 
TRUE

>  <SMILES>  (2471) 
N1C2(CC(C1)C2)C(=O)O

>  <INCHIKEY>  (2471) 
XEVFXAFXZZYFSX-UHFFFAOYSA-N

$$$$
bAla_2Rcyclobutane
     RDKit          2D

  8  8  0  0  0  0  0  0  0  0999 V2000
    1.7473   -1.8123    0.0000 N   0  0  0  0  0  0  0  0  0  0  0  0
    1.3130   -0.3765    0.0000 C   0  0  0  0  0  0  0  0  0  0  0  0
   -0.0093    0.3316    0.0000 C   0  0  0  0  0  0  0  0  0  0  0  0
    0.6988    1.6539    0.0000 C   0  0  0  0  0  0  0  0  0  0  0  0
    2.0211    0.9458    0.0000 C   0  0  0  0  0  0  0  0  0  0  0  0
   -1.4451   -0.1027    0.0000 C   0  0  0  0  0  0  0  0  0  0  0  0
   -1.7868   -1.5633    0.0000 O   0  0  0  0  0  0  0  0  0  0  0  0
   -2.5391    0.9235    0.0000 O   0  0  0  0  0  0  0  0  0  0  0  0
  2  1  1  6
  2  3  1  0
  3  4  1  0
  4  5  1  0
  3  6  1  6
  6  7  2  0
  6  8  1  0
  5  2  1  0
M  END
>  <rName>  (2472) 
bAla_2Rcyclobutane

>  <PQ_SYMBOL>  (2472) 
bAla_2Rcyclobutane

>  <FULL_NAME>  (2472) 
(1R,2S)-2-Aminocyclobutanecarboxylic acid

>  <IUPAC_CONDENSED>  (2472) 
bAla(2R-cyclobutane)

>  <IUPAC>  (2472) 
(1R,2S)-2-aminocyclobutanecarboxylic acid

>  <TYPE>  (2472) 
Backbone

>  <CLASS>  (2472) 
beta

>  <ANALOG>  (2472) 
Ala

>  <MOL_WT>  (2472) 
115.13199999999999

>  <LOGP>  (2472) 
-0.19170000000000004

>  <TPSA>  (2472) 
63.32000000000001

>  <POPULARITY>  (2472) 
5.1

>  <PROTECTED>  (2472) 
TRUE

>  <SMILES>  (2472) 
N[C@@H]1[C@@H](CC1)C(=O)O

>  <INCHIKEY>  (2472) 
NSQMWZLLTGEDQU-DMTCNVIQSA-N

$$$$
NcHex4NH2-G
     RDKit          2D

 12 12  0  0  0  0  0  0  0  0999 V2000
   -1.1404   -0.6704    0.0000 N   0  0  0  0  0  0  0  0  0  0  0  0
    0.3303   -0.3754    0.0000 C   0  0  0  0  0  0  0  0  0  0  0  0
    0.8101    1.0458    0.0000 C   0  0  0  0  0  0  0  0  0  0  0  0
    2.2808    1.3409    0.0000 C   0  0  0  0  0  0  0  0  0  0  0  0
    3.2717    0.2147    0.0000 C   0  0  0  0  0  0  0  0  0  0  0  0
    4.7424    0.5098    0.0000 N   0  0  0  0  0  0  0  0  0  0  0  0
    2.7919   -1.2064    0.0000 C   0  0  0  0  0  0  0  0  0  0  0  0
    1.3212   -1.5015    0.0000 C   0  0  0  0  0  0  0  0  0  0  0  0
   -2.1313    0.4557    0.0000 C   0  0  0  0  0  0  0  0  0  0  0  0
   -3.6020    0.1606    0.0000 C   0  0  0  0  0  0  0  0  0  0  0  0
   -4.0818   -1.2606    0.0000 O   0  0  0  0  0  0  0  0  0  0  0  0
   -4.5928    1.2868    0.0000 O   0  0  0  0  0  0  0  0  0  0  0  0
  1  2  1  0
  2  3  1  0
  3  4  1  0
  4  5  1  0
  5  6  1  0
  5  7  1  0
  7  8  1  0
  1  9  1  0
  9 10  1  0
 10 11  2  0
 10 12  1  0
  8  2  1  0
M  END
>  <rName>  (2473) 
NcHex4NH2-G

>  <PQ_SYMBOL>  (2473) 
NcHex4NH2-G

>  <FULL_NAME>  (2473) 
4-Aminocyclohexylglycine

>  <IUPAC_CONDENSED>  (2473) 
cHex(4-NH2)-Gly

>  <IUPAC>  (2473) 
2-((4-aminocyclohexyl)amino)acetic acid

>  <TYPE>  (2473) 
Backbone

>  <CLASS>  (2473) 
alpha

>  <ANALOG>  (2473) 
Gly

>  <MOL_WT>  (2473) 
172.228

>  <LOGP>  (2473) 
-0.06950000000000017

>  <TPSA>  (2473) 
75.35

>  <POPULARITY>  (2473) 
6.7

>  <PROTECTED>  (2473) 
TRUE

>  <SMILES>  (2473) 
N(C1(CCC(N)CC1))CC(=O)O

>  <INCHIKEY>  (2473) 
SNQBKCVWLYISGN-UHFFFAOYSA-N

$$$$
Nip_5MeNH2
     RDKit          2D

 11 11  0  0  0  0  0  0  0  0999 V2000
    0.5480   -2.1250    0.0000 N   0  0  0  0  0  0  0  0  0  0  0  0
   -0.8455   -1.5700    0.0000 C   0  0  0  0  0  0  0  0  0  0  0  0
   -1.0616   -0.0856    0.0000 C   0  0  0  0  0  0  0  0  0  0  0  0
    0.1159    0.8437    0.0000 C   0  0  0  0  0  0  0  0  0  0  0  0
    1.5094    0.2886    0.0000 C   0  0  0  0  0  0  0  0  0  0  0  0
    2.6869    1.2179    0.0000 C   0  0  0  0  0  0  0  0  0  0  0  0
    4.0804    0.6628    0.0000 N   0  0  0  0  0  0  0  0  0  0  0  0
    1.7255   -1.1957    0.0000 C   0  0  0  0  0  0  0  0  0  0  0  0
   -2.4551    0.4694    0.0000 C   0  0  0  0  0  0  0  0  0  0  0  0
   -3.6326   -0.4599    0.0000 O   0  0  0  0  0  0  0  0  0  0  0  0
   -2.6712    1.9538    0.0000 O   0  0  0  0  0  0  0  0  0  0  0  0
  1  2  1  0
  2  3  1  0
  3  4  1  0
  4  5  1  0
  5  6  1  0
  6  7  1  0
  5  8  1  0
  3  9  1  0
  9 10  2  0
  9 11  1  0
  8  1  1  0
M  END
>  <rName>  (2474) 
Nip_5MeNH2

>  <PQ_SYMBOL>  (2474) 
Nip_5MeNH2

>  <FULL_NAME>  (2474) 
5-(Aminomethyl)piperidine-3-carboxylic acid

>  <IUPAC_CONDENSED>  (2474) 
Nip(5-MeNH2)

>  <IUPAC>  (2474) 
5-(aminomethyl)piperidine-3-carboxylic acid

>  <TYPE>  (2474) 
Backbone

>  <CLASS>  (2474) 
beta

>  <ANALOG>  (2474) 
Pro

>  <MOL_WT>  (2474) 
158.20100000000002

>  <LOGP>  (2474) 
-0.7445999999999995

>  <TPSA>  (2474) 
75.35

>  <POPULARITY>  (2474) 
8

>  <PROTECTED>  (2474) 
TRUE

>  <SMILES>  (2474) 
N1CC(CC(CN)C1)C(=O)O

>  <INCHIKEY>  (2474) 
AGLZAPCVLBFPQX-UHFFFAOYSA-N

$$$$
Ser_iBu
     RDKit          2D

 11 10  0  0  0  0  0  0  0  0999 V2000
    1.6269   -1.8430    0.0000 N   0  0  0  0  0  0  0  0  0  0  0  0
    1.7489   -0.3480    0.0000 C   0  0  0  0  0  0  0  0  0  0  0  0
    0.5152    0.5052    0.0000 C   0  0  0  0  0  0  0  0  0  0  0  0
   -0.8406   -0.1366    0.0000 O   0  0  0  0  0  0  0  0  0  0  0  0
   -2.0743    0.7166    0.0000 C   0  0  0  0  0  0  0  0  0  0  0  0
   -3.4300    0.0748    0.0000 C   0  0  0  0  0  0  0  0  0  0  0  0
   -4.6637    0.9280    0.0000 C   0  0  0  0  0  0  0  0  0  0  0  0
   -3.5521   -1.4203    0.0000 C   0  0  0  0  0  0  0  0  0  0  0  0
    3.1047    0.2938    0.0000 C   0  0  0  0  0  0  0  0  0  0  0  0
    3.2267    1.7889    0.0000 O   0  0  0  0  0  0  0  0  0  0  0  0
    4.3384   -0.5594    0.0000 O   0  0  0  0  0  0  0  0  0  0  0  0
  2  1  1  1
  2  3  1  0
  3  4  1  0
  4  5  1  0
  5  6  1  0
  6  7  1  0
  6  8  1  0
  2  9  1  0
  9 10  2  0
  9 11  1  0
M  END
>  <rName>  (2475) 
Ser_iBu

>  <PQ_SYMBOL>  (2475) 
Ser_iBu

>  <FULL_NAME>  (2475) 
(2S)-2-Amino-3-(2-methylpropoxy)propanoic acid

>  <IUPAC_CONDENSED>  (2475) 
Ser(iBu)

>  <IUPAC>  (2475) 
(2S)-2-amino-3-isobutoxypropanoic acid

>  <TYPE>  (2475) 
Backbone

>  <CLASS>  (2475) 
alpha

>  <ANALOG>  (2475) 
Ser

>  <MOL_WT>  (2475) 
161.201

>  <LOGP>  (2475) 
0.07089999999999946

>  <TPSA>  (2475) 
72.55

>  <POPULARITY>  (2475) 
8

>  <PROTECTED>  (2475) 
TRUE

>  <SMILES>  (2475) 
N[C@@H](COCC(C)C)C(=O)O

>  <INCHIKEY>  (2475) 
WOWUEKKBANWFSQ-LURJTMIESA-N

$$$$
Gaba_3Bn
     RDKit          2D

 14 14  0  0  0  0  0  0  0  0999 V2000
   -2.1109    1.8553    0.0000 N   0  0  0  0  0  0  0  0  0  0  0  0
   -0.8633    1.0225    0.0000 C   0  0  0  0  0  0  0  0  0  0  0  0
   -0.9607   -0.4743    0.0000 C   0  0  0  0  0  0  0  0  0  0  0  0
    0.2869   -1.3071    0.0000 C   0  0  0  0  0  0  0  0  0  0  0  0
    1.6319   -0.6431    0.0000 C   0  0  0  0  0  0  0  0  0  0  0  0
    1.7293    0.8538    0.0000 C   0  0  0  0  0  0  0  0  0  0  0  0
    3.0743    1.5178    0.0000 C   0  0  0  0  0  0  0  0  0  0  0  0
    4.3219    0.6850    0.0000 C   0  0  0  0  0  0  0  0  0  0  0  0
    4.2245   -0.8118    0.0000 C   0  0  0  0  0  0  0  0  0  0  0  0
    2.8795   -1.4758    0.0000 C   0  0  0  0  0  0  0  0  0  0  0  0
   -2.3057   -1.1384    0.0000 C   0  0  0  0  0  0  0  0  0  0  0  0
   -3.5533   -0.3056    0.0000 C   0  0  0  0  0  0  0  0  0  0  0  0
   -3.4559    1.1912    0.0000 O   0  0  0  0  0  0  0  0  0  0  0  0
   -4.8983   -0.9696    0.0000 O   0  0  0  0  0  0  0  0  0  0  0  0
  1  2  1  0
  2  3  1  0
  3  4  1  0
  4  5  1  0
  5  6  2  0
  6  7  1  0
  7  8  2  0
  8  9  1  0
  9 10  2  0
  3 11  1  0
 11 12  1  0
 12 13  2  0
 12 14  1  0
 10  5  1  0
M  END
>  <rName>  (2476) 
Gaba_3Bn

>  <PQ_SYMBOL>  (2476) 
Gaba_3Bn

>  <FULL_NAME>  (2476) 
4-Amino-3-benzylbutanoic acid

>  <IUPAC_CONDENSED>  (2476) 
Gaba(3-Bn)

>  <IUPAC>  (2476) 
4-amino-3-benzylbutanoic acid

>  <TYPE>  (2476) 
Backbone

>  <CLASS>  (2476) 
gamma

>  <ANALOG>  (2476) 
Phe

>  <MOL_WT>  (2476) 
193.24599999999995

>  <LOGP>  (2476) 
1.2787

>  <TPSA>  (2476) 
63.32000000000001

>  <POPULARITY>  (2476) 
11.6

>  <PROTECTED>  (2476) 
TRUE

>  <SMILES>  (2476) 
NCC(Cc1(ccccc1))CC(=O)O

>  <INCHIKEY>  (2476) 
SMWZNXFMLNNMFB-UHFFFAOYSA-N

$$$$
Dap_3RMe_N3
     RDKit          2D

 10  9  0  0  0  0  0  0  0  0999 V2000
   -2.1925   -1.4493    0.0000 N   0  0  0  0  0  0  0  0  0  0  0  0
   -0.9836   -0.5613    0.0000 C   0  0  0  0  0  0  0  0  0  0  0  0
   -1.1482    0.9296    0.0000 C   0  0  0  0  0  0  0  0  0  0  0  0
   -2.5216    1.5326    0.0000 C   0  0  0  0  0  0  0  0  0  0  0  0
    0.0607    1.8176    0.0000 N   0  0  0  0  0  0  0  0  0  0  0  0
    1.4342    1.2147    0.0000 N   0  0  0  0  0  0  0  0  0  0  0  0
    2.8077    0.6117    0.0000 N   0  0  0  0  0  0  0  0  0  0  0  0
    0.3899   -1.1643    0.0000 C   0  0  0  0  0  0  0  0  0  0  0  0
    1.5988   -0.2763    0.0000 O   0  0  0  0  0  0  0  0  0  0  0  0
    0.5545   -2.6552    0.0000 O   0  0  0  0  0  0  0  0  0  0  0  0
  2  1  1  1
  2  3  1  0
  3  4  1  1
  3  5  1  0
  5  6  2  0
  6  7  2  0
  2  8  1  0
  8  9  2  0
  8 10  1  0
M  CHG  2   6   1   7  -1
M  END
>  <rName>  (2477) 
Dap_3RMe_N3

>  <PQ_SYMBOL>  (2477) 
Dap_3RMe_N3

>  <FULL_NAME>  (2477) 
(2S,3R)-2-amino-3-azidobutanoic acid

>  <IUPAC_CONDENSED>  (2477) 
Dap(3R-Me,N3)

>  <IUPAC>  (2477) 
(2S,3R)-2-amino-3-azidobutanoic acid

>  <TYPE>  (2477) 
Backbone

>  <CLASS>  (2477) 
alpha

>  <ANALOG>  (2477) 
X

>  <MOL_WT>  (2477) 
144.13400000000001

>  <LOGP>  (2477) 
0.09709999999999991

>  <TPSA>  (2477) 
112.08

>  <POPULARITY>  (2477) 
3.2

>  <PROTECTED>  (2477) 
TRUE

>  <SMILES>  (2477) 
N[C@@H]([C@@H](C)N=[N+]=[N-])C(=O)O

>  <INCHIKEY>  (2477) 
VFSRYBKOKKWXQW-GBXIJSLDSA-N

$$$$
Dap_3SMe
     RDKit          2D

  8  7  0  0  0  0  0  0  0  0999 V2000
    0.0000   -2.0625    0.0000 N   0  0  0  0  0  0  0  0  0  0  0  0
    0.0000   -0.5625    0.0000 C   0  0  0  0  0  0  0  0  0  0  0  0
   -1.2990    0.1875    0.0000 C   0  0  0  0  0  0  0  0  0  0  0  0
   -2.5981   -0.5625    0.0000 C   0  0  0  0  0  0  0  0  0  0  0  0
   -1.2990    1.6875    0.0000 N   0  0  0  0  0  0  0  0  0  0  0  0
    1.2990    0.1875    0.0000 C   0  0  0  0  0  0  0  0  0  0  0  0
    1.2990    1.6875    0.0000 O   0  0  0  0  0  0  0  0  0  0  0  0
    2.5981   -0.5625    0.0000 O   0  0  0  0  0  0  0  0  0  0  0  0
  2  1  1  1
  2  3  1  0
  3  4  1  6
  3  5  1  0
  2  6  1  0
  6  7  2  0
  6  8  1  0
M  END
>  <rName>  (2478) 
Dap_3SMe

>  <PQ_SYMBOL>  (2478) 
Dap_3SMe

>  <FULL_NAME>  (2478) 
(2S,3S)-2,3-Diaminobutanoic acid

>  <IUPAC_CONDENSED>  (2478) 
Dap(3S-Me)

>  <IUPAC>  (2478) 
(2S,3S)-2,3-diaminobutanoic acid

>  <TYPE>  (2478) 
Backbone

>  <CLASS>  (2478) 
alpha

>  <ANALOG>  (2478) 
X

>  <MOL_WT>  (2478) 
118.136

>  <LOGP>  (2478) 
-1.2544999999999995

>  <TPSA>  (2478) 
89.34

>  <POPULARITY>  (2478) 
11

>  <PROTECTED>  (2478) 
TRUE

>  <SMILES>  (2478) 
N[C@@H]([C@H](C)N)C(=O)O

>  <INCHIKEY>  (2478) 
SXGMVGOVILIERA-HRFVKAFMSA-N

$$$$
4-aza-Ac6c_g_g_g_gtetraMe_OH
     RDKit          2D

 15 15  0  0  0  0  0  0  0  0999 V2000
    2.0456   -1.7341    0.0000 N   0  0  0  0  0  0  0  0  0  0  0  0
    1.1794   -0.5094    0.0000 C   0  0  0  0  0  0  0  0  0  0  0  0
    0.1238   -1.5751    0.0000 C   0  0  0  0  0  0  0  0  0  0  0  0
   -1.3269   -1.1937    0.0000 C   0  0  0  0  0  0  0  0  0  0  0  0
   -1.4506   -2.6886    0.0000 C   0  0  0  0  0  0  0  0  0  0  0  0
   -2.8206   -1.3315    0.0000 C   0  0  0  0  0  0  0  0  0  0  0  0
   -1.7220    0.2533    0.0000 N   0  0  0  0  0  0  0  0  0  0  0  0
   -3.1727    0.6347    0.0000 O   0  0  0  0  0  0  0  0  0  0  0  0
   -0.6664    1.3190    0.0000 C   0  0  0  0  0  0  0  0  0  0  0  0
   -1.8991    2.1735    0.0000 C   0  0  0  0  0  0  0  0  0  0  0  0
   -0.0389    2.6814    0.0000 C   0  0  0  0  0  0  0  0  0  0  0  0
    0.7843    0.9376    0.0000 C   0  0  0  0  0  0  0  0  0  0  0  0
    2.5359    0.1309    0.0000 C   0  0  0  0  0  0  0  0  0  0  0  0
    2.6595    1.6258    0.0000 O   0  0  0  0  0  0  0  0  0  0  0  0
    3.7686   -0.7236    0.0000 O   0  0  0  0  0  0  0  0  0  0  0  0
  1  2  1  0
  2  3  1  0
  3  4  1  0
  4  5  1  0
  4  6  1  0
  4  7  1  0
  7  8  1  0
  7  9  1  0
  9 10  1  0
  9 11  1  0
  9 12  1  0
  2 13  1  0
 13 14  2  0
 13 15  1  0
 12  2  1  0
M  END
>  <rName>  (2479) 
4-aza-Ac6c_g_g_g_gtetraMe_OH

>  <PQ_SYMBOL>  (2479) 
4-aza-Ac6c_g_g_g_gtetraMe_OH

>  <FULL_NAME>  (2479) 
4-Amino-1-oxyl-2,2,6,6-tetramethylpiperidine-4-carboxylic acid

>  <IUPAC_CONDENSED>  (2479) 
4-aza-Ac6c(g,g,g,g-tetraMe,OH)

>  <IUPAC>  (2479) 
4-amino-1-hydroxy-2,2,6,6-tetramethylpiperidine-4-carboxylic acid

>  <TYPE>  (2479) 
Backbone

>  <CLASS>  (2479) 
alpha

>  <ANALOG>  (2479) 
X

>  <MOL_WT>  (2479) 
216.28099999999998

>  <LOGP>  (2479) 
0.8106999999999998

>  <TPSA>  (2479) 
86.79

>  <POPULARITY>  (2479) 
3.5

>  <PROTECTED>  (2479) 
TRUE

>  <SMILES>  (2479) 
NC1(CC(C)(C)N(O)C(C)(C)C1)C(=O)O

>  <INCHIKEY>  (2479) 
BYTZPINCZITWEC-UHFFFAOYSA-N

$$$$
bAla_3Ph_4CF3
     RDKit          2D

 16 16  0  0  0  0  0  0  0  0999 V2000
   -2.6557   -1.8716    0.0000 N   0  0  0  0  0  0  0  0  0  0  0  0
   -2.0655   -0.4926    0.0000 C   0  0  0  0  0  0  0  0  0  0  0  0
   -0.5761   -0.3143    0.0000 C   0  0  0  0  0  0  0  0  0  0  0  0
    0.0141    1.0647    0.0000 C   0  0  0  0  0  0  0  0  0  0  0  0
    1.5035    1.2430    0.0000 C   0  0  0  0  0  0  0  0  0  0  0  0
    2.4026    0.0424    0.0000 C   0  0  0  0  0  0  0  0  0  0  0  0
    1.8124   -1.3366    0.0000 C   0  0  0  0  0  0  0  0  0  0  0  0
    0.3230   -1.5149    0.0000 C   0  0  0  0  0  0  0  0  0  0  0  0
    3.8920    0.2207    0.0000 C   0  0  0  0  0  0  0  0  0  0  0  0
    5.3813    0.3991    0.0000 F   0  0  0  0  0  0  0  0  0  0  0  0
    4.0703   -1.2686    0.0000 F   0  0  0  0  0  0  0  0  0  0  0  0
    3.7136    1.7101    0.0000 F   0  0  0  0  0  0  0  0  0  0  0  0
   -2.9646    0.7080    0.0000 C   0  0  0  0  0  0  0  0  0  0  0  0
   -4.4539    0.5297    0.0000 C   0  0  0  0  0  0  0  0  0  0  0  0
   -5.0442   -0.8493    0.0000 O   0  0  0  0  0  0  0  0  0  0  0  0
   -5.3531    1.7303    0.0000 O   0  0  0  0  0  0  0  0  0  0  0  0
  1  2  1  0
  2  3  1  0
  3  4  1  0
  4  5  2  0
  5  6  1  0
  6  7  2  0
  7  8  1  0
  6  9  1  0
  9 10  1  0
  9 11  1  0
  9 12  1  0
  2 13  1  0
 13 14  1  0
 14 15  2  0
 14 16  1  0
  8  3  2  0
M  END
>  <rName>  (2480) 
bAla_3Ph_4CF3

>  <PQ_SYMBOL>  (2480) 
bAla_3Ph_4CF3

>  <FULL_NAME>  (2480) 
3-Amino-3-(4-Trifluoromethylphenyl)-Propionic Acid

>  <IUPAC_CONDENSED>  (2480) 
bAla(3-Ph(4-CF3))

>  <IUPAC>  (2480) 
3-amino-3-(4-(trifluoromethyl)phenyl)propanoic acid

>  <TYPE>  (2480) 
Backbone

>  <CLASS>  (2480) 
beta

>  <ANALOG>  (2480) 
X

>  <MOL_WT>  (2480) 
233.18899999999994

>  <LOGP>  (2480) 
2.1799

>  <TPSA>  (2480) 
63.32000000000001

>  <POPULARITY>  (2480) 
7.9

>  <PROTECTED>  (2480) 
TRUE

>  <SMILES>  (2480) 
NC(c1(ccc(cc1)C(F)(F)F))CC(=O)O

>  <INCHIKEY>  (2480) 
ABDRZHVLIRZFQO-UHFFFAOYSA-N

$$$$
Glu-al
     RDKit          2D

  9  8  0  0  0  0  0  0  0  0999 V2000
    1.7016   -1.5966    0.0000 N   0  0  0  0  0  0  0  0  0  0  0  0
    1.4770   -0.1135    0.0000 C   0  0  0  0  0  0  0  0  0  0  0  0
    2.6491    0.8225    0.0000 C   0  0  0  0  0  0  0  0  0  0  0  0
    4.0458    0.2755    0.0000 O   0  0  0  0  0  0  0  0  0  0  0  0
    0.0803    0.4336    0.0000 C   0  0  0  0  0  0  0  0  0  0  0  0
   -1.0918   -0.5025    0.0000 C   0  0  0  0  0  0  0  0  0  0  0  0
   -2.4885    0.0446    0.0000 C   0  0  0  0  0  0  0  0  0  0  0  0
   -2.7130    1.5277    0.0000 O   0  0  0  0  0  0  0  0  0  0  0  0
   -3.6606   -0.8914    0.0000 O   0  0  0  0  0  0  0  0  0  0  0  0
  2  1  1  1
  2  3  1  0
  3  4  2  0
  2  5  1  0
  5  6  1  0
  6  7  1  0
  7  8  2  0
  7  9  1  0
M  END
>  <rName>  (2481) 
Glu-al

>  <PQ_SYMBOL>  (2481) 
Glu-al

>  <FULL_NAME>  (2481) 
(4S)-4-Amino-5-oxopentanoic acid

>  <IUPAC_CONDENSED>  (2481) 
Glu-al

>  <IUPAC>  (2481) 
(4S)-4-amino-5-oxopentanoic acid

>  <TYPE>  (2481) 
Backbone

>  <CLASS>  (2481) 
gamma

>  <ANALOG>  (2481) 
X

>  <MOL_WT>  (2481) 
131.131

>  <LOGP>  (2481) 
-0.6226000000000003

>  <TPSA>  (2481) 
80.39

>  <POPULARITY>  (2481) 
15.6

>  <PROTECTED>  (2481) 
TRUE

>  <SMILES>  (2481) 
N[C@H](C=O)CCC(=O)O

>  <INCHIKEY>  (2481) 
MPUUQNGXJSEWTF-BYPYZUCNSA-N

$$$$
Ser_PyranoseNAc3OAc_RSSR
     RDKit          2D

 30 30  0  0  0  0  0  0  0  0999 V2000
   -5.5232   -0.1475    0.0000 N   0  0  0  0  0  0  0  0  0  0  0  0
   -4.8185    1.1767    0.0000 C   0  0  0  0  0  0  0  0  0  0  0  0
   -3.3194    1.2285    0.0000 C   0  0  0  0  0  0  0  0  0  0  0  0
   -2.5250   -0.0439    0.0000 O   0  0  0  0  0  0  0  0  0  0  0  0
   -1.0259    0.0079    0.0000 C   0  0  0  0  0  0  0  0  0  0  0  0
   -0.3212    1.3320    0.0000 O   0  0  0  0  0  0  0  0  0  0  0  0
    1.1779    1.3838    0.0000 C   0  0  0  0  0  0  0  0  0  0  0  0
    1.8826    2.7080    0.0000 C   0  0  0  0  0  0  0  0  0  0  0  0
    3.3817    2.7598    0.0000 O   0  0  0  0  0  0  0  0  0  0  0  0
    4.0864    4.0840    0.0000 C   0  0  0  0  0  0  0  0  0  0  0  0
    3.2920    5.3563    0.0000 O   0  0  0  0  0  0  0  0  0  0  0  0
    5.5855    4.1357    0.0000 C   0  0  0  0  0  0  0  0  0  0  0  0
    1.9723    0.1115    0.0000 C   0  0  0  0  0  0  0  0  0  0  0  0
    3.4714    0.1633    0.0000 O   0  0  0  0  0  0  0  0  0  0  0  0
    4.2658   -1.1091    0.0000 C   0  0  0  0  0  0  0  0  0  0  0  0
    3.5611   -2.4333    0.0000 O   0  0  0  0  0  0  0  0  0  0  0  0
    5.7649   -1.0573    0.0000 C   0  0  0  0  0  0  0  0  0  0  0  0
    1.2676   -1.2127    0.0000 C   0  0  0  0  0  0  0  0  0  0  0  0
    2.0620   -2.4851    0.0000 O   0  0  0  0  0  0  0  0  0  0  0  0
    1.3573   -3.8092    0.0000 C   0  0  0  0  0  0  0  0  0  0  0  0
   -0.1418   -3.8610    0.0000 O   0  0  0  0  0  0  0  0  0  0  0  0
    2.1518   -5.0816    0.0000 C   0  0  0  0  0  0  0  0  0  0  0  0
   -0.2315   -1.2645    0.0000 C   0  0  0  0  0  0  0  0  0  0  0  0
   -0.9362   -2.5886    0.0000 N   0  0  0  0  0  0  0  0  0  0  0  0
   -2.4353   -2.6404    0.0000 C   0  0  0  0  0  0  0  0  0  0  0  0
   -3.2297   -1.3681    0.0000 O   0  0  0  0  0  0  0  0  0  0  0  0
   -3.1400   -3.9646    0.0000 C   0  0  0  0  0  0  0  0  0  0  0  0
   -5.6129    2.4490    0.0000 C   0  0  0  0  0  0  0  0  0  0  0  0
   -4.9082    3.7732    0.0000 O   0  0  0  0  0  0  0  0  0  0  0  0
   -7.1120    2.3972    0.0000 O   0  0  0  0  0  0  0  0  0  0  0  0
  2  1  1  6
  2  3  1  0
  3  4  1  0
  5  4  1  6
  5  6  1  0
  6  7  1  0
  7  8  1  6
  8  9  1  0
  9 10  1  0
 10 11  2  0
 10 12  1  0
  7 13  1  0
 13 14  1  1
 14 15  1  0
 15 16  2  0
 15 17  1  0
 13 18  1  0
 18 19  1  6
 19 20  1  0
 20 21  2  0
 20 22  1  0
 18 23  1  0
 23 24  1  1
 24 25  1  0
 25 26  2  0
 25 27  1  0
  2 28  1  0
 28 29  2  0
 28 30  1  0
 23  5  1  0
M  END
>  <rName>  (2482) 
Ser_PyranoseNAc3OAc_RSSR

>  <PQ_SYMBOL>  (2482) 
Ser_PyranoseNAc3OAc_RSSR

>  <FULL_NAME>  (2482) 
(2S)-3-[(2R,3R,4R,5S,6R)-3-acetamido-4,5-diacetyloxy-6-(acetyloxymethyl)oxan-2-yl]oxy-2-aminopropanoic acid

>  <IUPAC_CONDENSED>  (2482) 
Ser(Pyranose-NAc-3OAc(RSSR))

>  <IUPAC>  (2482) 
(2S)-3-(((2R,3R,4R,5S,6R)-6-((acetoxy)methyl)-3-methylcarbonylamino-4,5-bis(acetoxy)-oxan-2-yl)oxy)-2-aminopropanoic acid

>  <TYPE>  (2482) 
Backbone

>  <CLASS>  (2482) 
alpha

>  <ANALOG>  (2482) 
Ser

>  <MOL_WT>  (2482) 
434.39800000000014

>  <LOGP>  (2482) 
-1.928999999999994

>  <TPSA>  (2482) 
189.78

>  <POPULARITY>  (2482) 
3.1

>  <PROTECTED>  (2482) 
TRUE

>  <SMILES>  (2482) 
N[C@@H](CO[C@@H]1(O[C@H](COC(=O)C)[C@@H](OC(=O)C)[C@H](OC(=O)C)[C@H]1NC(=O)C))C(=O)O

>  <INCHIKEY>  (2482) 
PKLDPSAWBZVIQW-WTUOYXTGSA-N

$$$$
bAla_3CF3
     RDKit          2D

 10  9  0  0  0  0  0  0  0  0999 V2000
   -0.0629   -1.7674    0.0000 N   0  0  0  0  0  0  0  0  0  0  0  0
   -0.3412   -0.2934    0.0000 C   0  0  0  0  0  0  0  0  0  0  0  0
   -1.7568    0.2026    0.0000 C   0  0  0  0  0  0  0  0  0  0  0  0
   -3.1725    0.6986    0.0000 F   0  0  0  0  0  0  0  0  0  0  0  0
   -2.2528   -1.2130    0.0000 F   0  0  0  0  0  0  0  0  0  0  0  0
   -1.2608    1.6182    0.0000 F   0  0  0  0  0  0  0  0  0  0  0  0
    0.7961    0.6846    0.0000 C   0  0  0  0  0  0  0  0  0  0  0  0
    2.2118    0.1886    0.0000 C   0  0  0  0  0  0  0  0  0  0  0  0
    2.4900   -1.2854    0.0000 O   0  0  0  0  0  0  0  0  0  0  0  0
    3.3491    1.1666    0.0000 O   0  0  0  0  0  0  0  0  0  0  0  0
  1  2  1  0
  2  3  1  0
  3  4  1  0
  3  5  1  0
  3  6  1  0
  2  7  1  0
  7  8  1  0
  8  9  2  0
  8 10  1  0
M  END
>  <rName>  (2483) 
bAla_3CF3

>  <PQ_SYMBOL>  (2483) 
bAla_3CF3

>  <FULL_NAME>  (2483) 
3-Amino-4,4,4-trifluorobutyric acid

>  <IUPAC_CONDENSED>  (2483) 
bAla(3-CF3)

>  <IUPAC>  (2483) 
3-amino-4,4,4-trifluorobutanoic acid

>  <TYPE>  (2483) 
Backbone

>  <CLASS>  (2483) 
beta

>  <ANALOG>  (2483) 
X

>  <MOL_WT>  (2483) 
157.091

>  <LOGP>  (2483) 
0.3507

>  <TPSA>  (2483) 
63.32000000000001

>  <POPULARITY>  (2483) 
8.5

>  <PROTECTED>  (2483) 
TRUE

>  <SMILES>  (2483) 
NC(C(F)(F)F)CC(=O)O

>  <INCHIKEY>  (2483) 
XRXQOEWWPPJVII-UHFFFAOYSA-N

$$$$
bAla_3Ph_3CF3
     RDKit          2D

 16 16  0  0  0  0  0  0  0  0999 V2000
   -1.8339   -1.7993    0.0000 N   0  0  0  0  0  0  0  0  0  0  0  0
   -1.7301   -0.3029    0.0000 C   0  0  0  0  0  0  0  0  0  0  0  0
   -0.3823    0.3554    0.0000 C   0  0  0  0  0  0  0  0  0  0  0  0
   -0.2785    1.8518    0.0000 C   0  0  0  0  0  0  0  0  0  0  0  0
    1.0693    2.5102    0.0000 C   0  0  0  0  0  0  0  0  0  0  0  0
    2.3133    1.6721    0.0000 C   0  0  0  0  0  0  0  0  0  0  0  0
    2.2096    0.1757    0.0000 C   0  0  0  0  0  0  0  0  0  0  0  0
    0.8618   -0.4826    0.0000 C   0  0  0  0  0  0  0  0  0  0  0  0
    3.4536   -0.6624    0.0000 C   0  0  0  0  0  0  0  0  0  0  0  0
    4.6977   -1.5004    0.0000 F   0  0  0  0  0  0  0  0  0  0  0  0
    2.6155   -1.9064    0.0000 F   0  0  0  0  0  0  0  0  0  0  0  0
    4.2917    0.5817    0.0000 F   0  0  0  0  0  0  0  0  0  0  0  0
   -2.9741    0.5352    0.0000 C   0  0  0  0  0  0  0  0  0  0  0  0
   -4.3219   -0.1232    0.0000 C   0  0  0  0  0  0  0  0  0  0  0  0
   -4.4257   -1.6196    0.0000 O   0  0  0  0  0  0  0  0  0  0  0  0
   -5.5660    0.7149    0.0000 O   0  0  0  0  0  0  0  0  0  0  0  0
  1  2  1  0
  2  3  1  0
  3  4  1  0
  4  5  2  0
  5  6  1  0
  6  7  2  0
  7  8  1  0
  7  9  1  0
  9 10  1  0
  9 11  1  0
  9 12  1  0
  2 13  1  0
 13 14  1  0
 14 15  2  0
 14 16  1  0
  8  3  2  0
M  END
>  <rName>  (2484) 
bAla_3Ph_3CF3

>  <PQ_SYMBOL>  (2484) 
bAla_3Ph_3CF3

>  <FULL_NAME>  (2484) 
3-Amino-3-[3-(trifluoromethyl)phenyl]propanoic acid

>  <IUPAC_CONDENSED>  (2484) 
bAla(3-Ph(3-CF3))

>  <IUPAC>  (2484) 
3-amino-3-(3-(trifluoromethyl)phenyl)propanoic acid

>  <TYPE>  (2484) 
Backbone

>  <CLASS>  (2484) 
beta

>  <ANALOG>  (2484) 
X

>  <MOL_WT>  (2484) 
233.18899999999994

>  <LOGP>  (2484) 
2.1799

>  <TPSA>  (2484) 
63.32000000000001

>  <POPULARITY>  (2484) 
6.5

>  <PROTECTED>  (2484) 
TRUE

>  <SMILES>  (2484) 
NC(c1(cccc(c1)C(F)(F)F))CC(=O)O

>  <INCHIKEY>  (2484) 
WZXBASRNQXYUIP-UHFFFAOYSA-N

$$$$
bAla_3SCF3
     RDKit          2D

 10  9  0  0  0  0  0  0  0  0999 V2000
   -0.0629   -1.7674    0.0000 N   0  0  0  0  0  0  0  0  0  0  0  0
   -0.3412   -0.2934    0.0000 C   0  0  0  0  0  0  0  0  0  0  0  0
   -1.7568    0.2026    0.0000 C   0  0  0  0  0  0  0  0  0  0  0  0
   -3.1725    0.6986    0.0000 F   0  0  0  0  0  0  0  0  0  0  0  0
   -2.2528   -1.2130    0.0000 F   0  0  0  0  0  0  0  0  0  0  0  0
   -1.2608    1.6182    0.0000 F   0  0  0  0  0  0  0  0  0  0  0  0
    0.7961    0.6846    0.0000 C   0  0  0  0  0  0  0  0  0  0  0  0
    2.2118    0.1886    0.0000 C   0  0  0  0  0  0  0  0  0  0  0  0
    2.4900   -1.2854    0.0000 O   0  0  0  0  0  0  0  0  0  0  0  0
    3.3491    1.1666    0.0000 O   0  0  0  0  0  0  0  0  0  0  0  0
  2  1  1  1
  2  3  1  0
  3  4  1  0
  3  5  1  0
  3  6  1  0
  2  7  1  0
  7  8  1  0
  8  9  2  0
  8 10  1  0
M  END
>  <rName>  (2485) 
bAla_3SCF3

>  <PQ_SYMBOL>  (2485) 
bAla_3SCF3

>  <FULL_NAME>  (2485) 
(R)-3-Amino-4,4,4-trifluorobutanoic acid

>  <IUPAC_CONDENSED>  (2485) 
bAla(3S-CF3)

>  <IUPAC>  (2485) 
(3R)-3-amino-4,4,4-trifluorobutanoic acid

>  <TYPE>  (2485) 
Backbone

>  <CLASS>  (2485) 
beta

>  <ANALOG>  (2485) 
X

>  <MOL_WT>  (2485) 
157.091

>  <LOGP>  (2485) 
0.3507

>  <TPSA>  (2485) 
63.32000000000001

>  <POPULARITY>  (2485) 
5.9

>  <PROTECTED>  (2485) 
TRUE

>  <SMILES>  (2485) 
N[C@@H](C(F)(F)F)CC(=O)O

>  <INCHIKEY>  (2485) 
XRXQOEWWPPJVII-UWTATZPHSA-N

$$$$
Phe_3F_4Cl
     RDKit          2D

 14 14  0  0  0  0  0  0  0  0999 V2000
   -2.0094    1.6916    0.0000 N   0  0  0  0  0  0  0  0  0  0  0  0
   -2.3243    0.2250    0.0000 C   0  0  0  0  0  0  0  0  0  0  0  0
   -1.2116   -0.7809    0.0000 C   0  0  0  0  0  0  0  0  0  0  0  0
    0.2159   -0.3203    0.0000 C   0  0  0  0  0  0  0  0  0  0  0  0
    0.5308    1.1463    0.0000 C   0  0  0  0  0  0  0  0  0  0  0  0
    1.9583    1.6069    0.0000 C   0  0  0  0  0  0  0  0  0  0  0  0
    3.0710    0.6009    0.0000 C   0  0  0  0  0  0  0  0  0  0  0  0
    4.4985    1.0615    0.0000 Cl  0  0  0  0  0  0  0  0  0  0  0  0
    2.7561   -0.8657    0.0000 C   0  0  0  0  0  0  0  0  0  0  0  0
    3.8688   -1.8716    0.0000 F   0  0  0  0  0  0  0  0  0  0  0  0
    1.3286   -1.3263    0.0000 C   0  0  0  0  0  0  0  0  0  0  0  0
   -3.7518   -0.2356    0.0000 C   0  0  0  0  0  0  0  0  0  0  0  0
   -4.0666   -1.7022    0.0000 O   0  0  0  0  0  0  0  0  0  0  0  0
   -4.8644    0.7704    0.0000 O   0  0  0  0  0  0  0  0  0  0  0  0
  2  1  1  1
  2  3  1  0
  3  4  1  0
  4  5  1  0
  5  6  2  0
  6  7  1  0
  7  8  1  0
  7  9  2  0
  9 10  1  0
  9 11  1  0
  2 12  1  0
 12 13  2  0
 12 14  1  0
 11  4  2  0
M  END
>  <rName>  (2486) 
Phe_3F_4Cl

>  <PQ_SYMBOL>  (2486) 
Phe_3F_4Cl

>  <FULL_NAME>  (2486) 
(2S)-2-amino-3-(4-chloro-3-fluorophenyl)propanoic acid

>  <IUPAC_CONDENSED>  (2486) 
Phe(3-F,4-Cl)

>  <IUPAC>  (2486) 
(2S)-2-amino-3-(4-chloro-3-fluorophenyl)propanoic acid

>  <TYPE>  (2486) 
Backbone

>  <CLASS>  (2486) 
alpha

>  <ANALOG>  (2486) 
Phe

>  <MOL_WT>  (2486) 
217.62699999999998

>  <LOGP>  (2486) 
1.4335000000000002

>  <TPSA>  (2486) 
63.32000000000001

>  <POPULARITY>  (2486) 
3.2

>  <PROTECTED>  (2486) 
TRUE

>  <SMILES>  (2486) 
N[C@@H](Cc1(ccc(Cl)c(F)c1))C(=O)O

>  <INCHIKEY>  (2486) 
GARTVDUTCAAMSC-QMMMGPOBSA-N

$$$$
NMe-Phe_3F
     RDKit          2D

 14 14  0  0  0  0  0  0  0  0999 V2000
   -1.6735    1.3512    0.0000 N   0  0  0  0  0  0  0  0  0  0  0  0
   -2.9175    2.1893    0.0000 C   0  0  0  0  0  0  0  0  0  0  0  0
   -1.7773   -0.1452    0.0000 C   0  0  0  0  0  0  0  0  0  0  0  0
   -0.5333   -0.9833    0.0000 C   0  0  0  0  0  0  0  0  0  0  0  0
    0.8146   -0.3250    0.0000 C   0  0  0  0  0  0  0  0  0  0  0  0
    0.9184    1.1714    0.0000 C   0  0  0  0  0  0  0  0  0  0  0  0
    2.2662    1.8297    0.0000 C   0  0  0  0  0  0  0  0  0  0  0  0
    3.5102    0.9916    0.0000 C   0  0  0  0  0  0  0  0  0  0  0  0
    3.4064   -0.5048    0.0000 C   0  0  0  0  0  0  0  0  0  0  0  0
    4.6504   -1.3429    0.0000 F   0  0  0  0  0  0  0  0  0  0  0  0
    2.0586   -1.1631    0.0000 C   0  0  0  0  0  0  0  0  0  0  0  0
   -3.1251   -0.8035    0.0000 C   0  0  0  0  0  0  0  0  0  0  0  0
   -3.2289   -2.2999    0.0000 O   0  0  0  0  0  0  0  0  0  0  0  0
   -4.3691    0.0346    0.0000 O   0  0  0  0  0  0  0  0  0  0  0  0
  1  2  1  0
  1  3  1  0
  3  4  1  1
  4  5  1  0
  5  6  2  0
  6  7  1  0
  7  8  2  0
  8  9  1  0
  9 10  1  0
  9 11  2  0
  3 12  1  0
 12 13  2  0
 12 14  1  0
 11  5  1  0
M  END
>  <rName>  (2487) 
NMe-Phe_3F

>  <PQ_SYMBOL>  (2487) 
NMe-Phe_3F

>  <FULL_NAME>  (2487) 
(2S)-3-(3-fluorophenyl)-2-(methylamino)propanoic acid

>  <IUPAC_CONDENSED>  (2487) 
Me-Phe(3-F)

>  <IUPAC>  (2487) 
(2S)-3-(3-fluorophenyl)-2-(methylamino)propanoic acid

>  <TYPE>  (2487) 
Backbone

>  <CLASS>  (2487) 
alpha

>  <ANALOG>  (2487) 
Phe

>  <MOL_WT>  (2487) 
197.20899999999997

>  <LOGP>  (2487) 
1.0407999999999997

>  <TPSA>  (2487) 
49.33

>  <POPULARITY>  (2487) 
7.3

>  <PROTECTED>  (2487) 
TRUE

>  <SMILES>  (2487) 
N(C)[C@@H](Cc1(cccc(F)c1))C(=O)O

>  <INCHIKEY>  (2487) 
ZRMVYUADMZBKGO-VIFPVBQESA-N

$$$$
Ala_pyrid2yl_5Br
     RDKit          2D

 13 13  0  0  0  0  0  0  0  0999 V2000
   -1.5766    1.6851    0.0000 N   0  0  0  0  0  0  0  0  0  0  0  0
   -2.0128    0.2500    0.0000 C   0  0  0  0  0  0  0  0  0  0  0  0
   -0.9880   -0.8454    0.0000 C   0  0  0  0  0  0  0  0  0  0  0  0
    0.4730   -0.5055    0.0000 C   0  0  0  0  0  0  0  0  0  0  0  0
    0.9092    0.9296    0.0000 C   0  0  0  0  0  0  0  0  0  0  0  0
    2.3702    1.2695    0.0000 C   0  0  0  0  0  0  0  0  0  0  0  0
    3.3950    0.1741    0.0000 C   0  0  0  0  0  0  0  0  0  0  0  0
    4.8560    0.5140    0.0000 Br  0  0  0  0  0  0  0  0  0  0  0  0
    2.9588   -1.2611    0.0000 C   0  0  0  0  0  0  0  0  0  0  0  0
    1.4978   -1.6009    0.0000 N   0  0  0  0  0  0  0  0  0  0  0  0
   -3.4738   -0.0899    0.0000 C   0  0  0  0  0  0  0  0  0  0  0  0
   -3.9100   -1.5250    0.0000 O   0  0  0  0  0  0  0  0  0  0  0  0
   -4.4986    1.0055    0.0000 O   0  0  0  0  0  0  0  0  0  0  0  0
  2  1  1  1
  2  3  1  0
  3  4  1  0
  4  5  1  0
  5  6  2  0
  6  7  1  0
  7  8  1  0
  7  9  2  0
  9 10  1  0
  2 11  1  0
 11 12  2  0
 11 13  1  0
 10  4  2  0
M  END
>  <rName>  (2488) 
Ala_pyrid2yl_5Br

>  <PQ_SYMBOL>  (2488) 
Ala_pyrid2yl_5Br

>  <FULL_NAME>  (2488) 
(2S)-2-amino-3-(5-bromopyridin-2-yl)propanoic acid

>  <IUPAC_CONDENSED>  (2488) 
Ala(pyrid-2-yl(5-Br))

>  <IUPAC>  (2488) 
(2S)-2-amino-3-(5-bromopyridin-2-yl)propanoic acid

>  <TYPE>  (2488) 
Backbone

>  <CLASS>  (2488) 
alpha

>  <ANALOG>  (2488) 
Phe

>  <MOL_WT>  (2488) 
245.07599999999996

>  <LOGP>  (2488) 
0.7985

>  <TPSA>  (2488) 
76.21

>  <POPULARITY>  (2488) 
3

>  <PROTECTED>  (2488) 
TRUE

>  <SMILES>  (2488) 
N[C@@H](Cc1(ccc(Br)cn1))C(=O)O

>  <INCHIKEY>  (2488) 
KGYVEAZKKOLWLQ-ZETCQYMHSA-N

$$$$
